geometry optimzed in LAMMPS
_audit_creation_date              2020-11-30 
_audit_creation_method            'lammps2cif' 
_symmetry_space_group_name_H-M    'P1' 
_symmetry_Int_Tables_number       1 
_symmetry_cell_setting            triclinic 
loop_ 
_symmetry_equiv_pos_as_xyz 
  x,y,z 
_cell_length_a                    46.83343627 
_cell_length_b                    25.02411302782637 
_cell_length_c                    30.928094308070435 
_cell_angle_alpha                 87.05936474242584 
_cell_angle_beta                  90.78673959751787 
_cell_angle_gamma                 89.84374465921145 
loop_ 
_atom_site_label 
_atom_site_type_symbol 
_atom_site_fract_x 
_atom_site_fract_y 
_atom_site_fract_z 
_atom_site_charge 
C1          C  0.34243237  0.76540264  0.99191892     0.02900
C2          C  0.33261773  0.75345415  0.45512674    -0.13200
C3          C  0.31249510  0.71295850  0.44980833     0.00400
C4          C  0.29768605  0.69190591  0.48605178    -0.11700
C5          C  0.30876591  0.70570629  0.02902612     0.02900
C6          C  0.32802407  0.74818403  0.02955521    -0.11200
H7          H  0.34512825  0.76713097  0.42754125     0.08500
H8          H  0.28264719  0.65951946  0.48255117     0.06100
H9          H  0.33059855  0.76906798  0.05906391     0.05900
C10         C  0.09492615  0.80764058  0.98872246     0.02900
C11         C  0.11096955  0.78467531  0.45363137    -0.13200
C12         C  0.12686001  0.73772292  0.46241926     0.00400
C13         C  0.12659851  0.71266543  0.50345956    -0.11700
C14         C  0.10968258  0.73385374  0.03836927     0.02900
C15         C  0.09472068  0.78179147  0.03023205    -0.11200
H16         H  0.11150993  0.80447678  0.42167145     0.08500
H17         H  0.13996041  0.67764304  0.51003861     0.06100
H18         H  0.08301807  0.79893562  0.05618063     0.05900
C19         C  0.30196819  0.28055597  0.99606283     0.02900
C20         C  0.29274318  0.29477021  0.45543462    -0.13200
C21         C  0.26997034  0.33026618  0.44731603     0.00400
C22         C  0.25757348  0.35533651  0.48200661    -0.11700
C23         C  0.26765704  0.34206554  0.02551179     0.02900
C24         C  0.29057187  0.30596399  0.03163867    -0.11200
H25         H  0.30201261  0.27495865  0.42860791     0.08500
H26         H  0.24052530  0.38423063  0.47576966     0.06100
H27         H  0.30056680  0.30040050  0.06335707     0.05900
N28         N  0.46537459  0.98188910  0.98029511    -0.36800
N29         N  0.50193149  0.07502020  0.97384424    -0.57400
N30         N  0.45267069  0.14230501  0.98676488    -0.36800
N31         N  0.41637178  0.04894310  0.99629773    -0.57400
C32         C  0.49146205  0.95845071  0.98285509     0.26800
C33         C  0.44600294  0.94391738  0.99176754     0.26800
C34         C  0.47421579  0.17724163  0.99232634     0.26800
C35         C  0.42906049  0.16374340  0.00375013     0.26800
C36         C  0.01964738  0.03589014  0.97564580     0.35400
C37         C  0.01426929  0.12097981  0.98032474     0.35400
C38         C  0.40256924  0.00207818  0.99236520     0.35400
C39         C  0.39602598  0.08739074  0.99621851     0.35400
C40         C  0.48862348  0.90497388  0.99595770    -0.22100
C41         C  0.46007014  0.89549519  0.00053570    -0.22100
C42         C  0.46411008  0.22137498  0.01291046    -0.22100
C43         C  0.43557697  0.21289739  0.01997619    -0.22100
C44         C  0.04393044  0.05948533  0.95827534    -0.23100
C45         C  0.04042852  0.11368734  0.96098035    -0.23100
C46         C  0.37326882  0.01082341  0.99140061    -0.23100
C47         C  0.36917752  0.06487439  0.99283512    -0.23100
C48         C  0.01527122  0.98052220  0.98181031    -0.18500
C49         C  0.41595133  0.95124876  0.99192053    -0.18500
C50         C  0.40131703  0.14204306  0.00223139    -0.18500
C51         C  0.50239163  0.17183768  0.97731136    -0.18500
H52         H  0.00140918  0.87283135  0.00936694     0.14400
H53         H  0.45122363  0.85659907  0.00874946     0.14400
H54         H  0.47598932  0.25636404  0.02161812     0.14400
H55         H  0.42118283  0.23997801  0.03511667     0.14400
H56         H  0.06233292  0.03965877  0.94552201     0.12700
H57         H  0.05567853  0.14412931  0.95094995     0.12700
H58         H  0.35638512  0.98152752  0.99031717     0.12700
H59         H  0.34868738  0.08495116  0.99250573     0.12700
H60         H  0.46070034  0.01974290  0.96661930     0.26000
H61         H  0.45321487  0.10921755  0.96777846     0.26000
C62         C  0.06462356  0.36891600  0.99583837     0.02900
C63         C  0.07840131  0.39554477  0.45731528    -0.13200
C64         C  0.09452605  0.44188498  0.46329259     0.00400
C65         C  0.09755194  0.46063332  0.50516973    -0.11700
C66         C  0.08613906  0.43263650  0.04308898     0.02900
C67         C  0.06919389  0.38777539  0.03732029    -0.11200
H68         H  0.07826414  0.37794742  0.42605157     0.08500
H69         H  0.11170107  0.49384498  0.51084759     0.06100
H70         H  0.06173459  0.36489664  0.06563783     0.05900
O71         O  0.21483850  0.60356505  0.34400089    -0.80300
O72         O  0.16540109  0.52229128  0.18634866    -0.80300
O73         O  0.16771772  0.64010442  0.21776541    -0.80400
O74         O  0.16342696  0.51060731  0.28661831    -0.80300
O75         O  0.18907154  0.61444777  0.16060196    -0.80400
O76         O  0.19879555  0.50262164  0.33479175    -0.77600
O77         O  0.16543318  0.44162181  0.21900459    -0.80300
O78         O  0.17997579  0.63432077  0.30120683    -0.80400
C79         C  0.19087228  0.62729810  0.33835925     1.09400
C80         C  0.15481609  0.47478523  0.19094661     1.09300
C81         C  0.16845322  0.63761950  0.17755386     1.09400
C82         C  0.17217499  0.50350146  0.32571618     1.09300
O83         O  0.24821174  0.48237495  0.28165650    -0.80300
O84         O  0.24568621  0.58282137  0.18569183    -0.80400
O85         O  0.23857200  0.66286922  0.28641416    -0.80300
O86         O  0.21861169  0.46861464  0.19212167    -0.80300
O87         O  0.21126318  0.52378302  0.13487764    -0.80400
O88         O  0.26311655  0.58840062  0.28729706    -0.80300
O89         O  0.20871704  0.43844940  0.27760315    -0.80300
O90         O  0.22827557  0.66218067  0.19887394    -0.80400
Co91       Co  0.23096514  0.54472879  0.30822296     1.51500
Co92       Co  0.20752627  0.55061056  0.19008975     1.51700
Co93       Co  0.20359079  0.64517010  0.25083875     1.51600
Co94       Co  0.19009791  0.49519516  0.23946248     1.51500
O95         O  0.20925498  0.56458766  0.25261916    -1.42300
C96         C  0.23455284  0.43973248  0.28959540     1.09300
C97         C  0.24616671  0.63329648  0.17975093     1.09400
C98         C  0.26136768  0.63683687  0.29620574     1.09300
C99         C  0.22112885  0.48001432  0.15086936     1.09300
C100        C  0.13963952  0.41558807  0.13492719    -0.26500
C101        C  0.13260338  0.45824365  0.16038530    -0.14600
C102        C  0.10784230  0.48925963  0.14995335     0.36100
C103        C  0.09208821  0.47927025  0.11219009    -0.26000
C104        C  0.10040021  0.43872255  0.08535323    -0.15200
C105        C  0.12407896  0.40589751  0.09746724     0.37100
N106        N  0.13377817  0.36431022  0.07097441    -0.89400
H107        H  0.15873778  0.39206270  0.14235463     0.18300
H108        H  0.07366058  0.50389520  0.10329591     0.18200
N109        N  0.09838092  0.53130316  0.17639384    -0.88500
H110        H  0.13825739  0.38103419  0.04014929     0.35600
H111        H  0.11584611  0.33484023  0.56577573     0.40700
H112        H  0.11110609  0.53340088  0.20422393     0.40300
H113        H  0.07791342  0.52132016  0.18714095     0.35200
C114        C  0.12247333  0.48739300  0.35230950    -0.26500
C115        C  0.15180833  0.49243777  0.36146825    -0.14600
C116        C  0.16150676  0.48475291  0.40499463     0.36100
C117        C  0.14222571  0.47011103  0.43745040    -0.26000
C118        C  0.11315102  0.46331845  0.42812420    -0.15200
C119        C  0.10313870  0.47291133  0.38522385     0.37100
N120        N  0.07338571  0.46797641  0.37496506    -0.89400
H121        H  0.11449370  0.49371384  0.31939347     0.18300
H122        H  0.15041190  0.46212613  0.47010206     0.18200
N123        N  0.19100418  0.49082873  0.41673543    -0.88500
H124        H  0.06622229  0.50466410  0.36111259     0.35600
H125        H  0.07118711  0.43931517  0.35171400     0.40700
H126        H  0.19833598  0.45463786  0.43133047     0.40300
H127        H  0.19246930  0.52013578  0.43957003     0.35200
C128        C  0.51605272  0.26140622  0.46325677    -0.26500
C129        C  0.02215943  0.21775567  0.99009947    -0.14600
C130        C  0.04413338  0.22494303  0.02082896     0.36100
C131        C  0.05849792  0.27361785  0.02071903    -0.26000
C132        C  0.05087849  0.31620062  0.99132218    -0.15200
C133        C  0.53055514  0.31009791  0.46497444     0.37100
N134        N  0.52153554  0.35491524  0.43743681    -0.89400
H135        H  0.49823031  0.25810748  0.44083031     0.18300
H136        H  0.07528192  0.27858379  0.04461340     0.18200
N137        N  0.05137751  0.18451181  0.05367492    -0.88500
H138        H  0.50004039  0.36254120  0.44351961     0.35600
H139        H  0.52313277  0.34422356  0.40531784     0.40700
H140        H  0.03304611  0.17482752  0.07127926     0.40300
H141        H  0.05837454  0.15038587  0.03883981     0.35200
C142        C  0.37774533  0.22620136  0.48234997    -0.26500
C143        C  0.37671763  0.17961124  0.00455555    -0.14600
C144        C  0.35632344  0.17639199  0.03803169     0.36100
C145        C  0.33217591  0.20984194  0.03497226    -0.26000
C146        C  0.32860783  0.24807685  0.00039968    -0.15200
C147        C  0.35416247  0.26036433  0.47642011     0.37100
N148        N  0.35395163  0.30109760  0.44186001    -0.89400
H149        H  0.39498359  0.22863184  0.45929693     0.18300
H150        H  0.31599283  0.20555140  0.05959852     0.18200
N151        N  0.35957164  0.14053378  0.07562030    -0.88500
H152        H  0.37272023  0.29978029  0.42401230     0.35600
H153        H  0.35363269  0.33821329  0.45590056     0.40700
H154        H  0.37902501  0.12007480  0.07584948     0.40300
H155        H  0.34334690  0.11201488  0.07458302     0.35200
C156        C  0.26178038  0.43074998  0.05562075    -0.26500
C157        C  0.25814783  0.37532569  0.06088238    -0.14600
C158        C  0.24427087  0.35351845  0.09792894     0.36100
C159        C  0.23352621  0.38816158  0.12849946    -0.26000
C160        C  0.23608576  0.44393519  0.12208217    -0.15200
C161        C  0.25104357  0.46524284  0.08573762     0.37100
N162        N  0.25529055  0.52196748  0.07950690    -0.89400
H163        H  0.27280123  0.44722864  0.02738939     0.18300
H164        H  0.22198598  0.37179548  0.15624783     0.18200
N165        N  0.24033219  0.29667797  0.10356297    -0.88500
H166        H  0.26647313  0.53111079  0.05105985     0.35600
H167        H  0.26832810  0.53348264  0.10501261     0.40700
H168        H  0.22699027  0.28490852  0.07840753     0.40300
H169        H  0.22965708  0.28717170  0.13239903     0.35200
C170        C  0.28227104  0.36925138  0.37426139    -0.26500
C171        C  0.26159196  0.34702390  0.40230930    -0.14600
C172        C  0.23286283  0.34661284  0.38864754     0.36100
C173        C  0.22489533  0.37224534  0.34899224    -0.26000
C174        C  0.24513098  0.39958412  0.32292916    -0.15200
C175        C  0.27424354  0.39571079  0.33478379     0.37100
N176        N  0.29557631  0.42006237  0.30758749    -0.89400
H177        H  0.30455059  0.36905939  0.38423139     0.18300
H178        H  0.20239223  0.37416946  0.34039369     0.18200
N179        N  0.21160751  0.32157352  0.41562043    -0.88500
H180        H  0.30993928  0.39024121  0.29948115     0.35600
H181        H  0.30673774  0.44774726  0.32549048     0.40700
H182        H  0.20150318  0.29227446  0.39803568     0.40300
H183        H  0.19634361  0.35044717  0.42237545     0.35200
C184        C  0.08090466  0.89783704  0.01065491    -0.26500
C185        C  0.07841204  0.85761603  0.98080360    -0.14600
C186        C  0.05779177  0.86284342  0.94723315     0.36100
C187        C  0.03904812  0.90656609  0.94550436    -0.26000
C188        C  0.03987331  0.94389445  0.97777782    -0.15200
C189        C  0.06145802  0.94052571  0.00998956     0.37100
N190        N  0.06113703  0.97757086  0.53879392    -0.89400
H191        H  0.09702487  0.89412703  0.03612105     0.18300
H192        H  0.02228578  0.90907960  0.92095895     0.18200
N193        N  0.05438485  0.82191810  0.91687039    -0.88500
H194        H  0.07988325  0.97076547  0.06417078     0.35600
H195        H  0.04415615  0.97423000  0.06152705     0.40700
H196        H  0.05635816  0.83597515  0.38312650     0.40300
H197        H  0.03324521  0.80295284  0.41641517     0.35200
C198        C  0.12507496  0.74118204  0.11435506    -0.26500
C199        C  0.11367547  0.70943625  0.08229410    -0.14600
C200        C  0.11444530  0.65324713  0.08846509     0.36100
C201        C  0.13142790  0.62996639  0.12166802    -0.26000
C202        C  0.14591153  0.66202773  0.15032958    -0.15200
C203        C  0.14107938  0.71775336  0.14871177     0.37100
N204        N  0.15414725  0.75168915  0.17917720    -0.89400
H205        H  0.12427556  0.78443666  0.11026438     0.18300
H206        H  0.13473867  0.58708931  0.12336380     0.18200
N207        N  0.09997676  0.62009510  0.05876868    -0.88500
H208        H  0.17628026  0.74655733  0.17833757     0.35600
H209        H  0.14716219  0.73970400  0.21011846     0.40700
H210        H  0.11760019  0.59370083  0.54100482     0.40300
H211        H  0.08563014  0.59598808  0.07640322     0.35200
C212        C  0.17292772  0.70902506  0.43370530    -0.26500
C213        C  0.14303351  0.71161339  0.42916256    -0.14600
C214        C  0.12907703  0.68141711  0.39789561     0.36100
C215        C  0.14549284  0.65182680  0.37049055    -0.26000
C216        C  0.17542222  0.65079950  0.37371990    -0.15200
C217        C  0.18937713  0.67887244  0.40612791     0.37100
N218        N  0.21998280  0.67792590  0.41016549    -0.89400
H219        H  0.18336964  0.73056212  0.45898953     0.18300
H220        H  0.13466447  0.62975520  0.34585648     0.18200
N221        N  0.09848438  0.67901784  0.39321505    -0.88500
H222        H  0.22674020  0.69992095  0.43624967     0.35600
H223        H  0.22805165  0.69753318  0.38234300     0.40700
H224        H  0.08800204  0.70212896  0.41518741     0.40300
H225        H  0.09234179  0.63940865  0.40027965     0.35200
C226        C  0.36080926  0.85049576  0.95788297    -0.26500
C227        C  0.36231440  0.81154027  0.99231939    -0.14600
C228        C  0.37325652  0.83031248  0.53610769     0.36100
C229        C  0.39092118  0.87506781  0.53780685    -0.26000
C230        C  0.39741740  0.90309486  0.99174524    -0.15200
C231        C  0.37912814  0.89449975  0.95634190     0.37100
N232        N  0.37903845  0.93063276  0.91885293    -0.89400
H233        H  0.34553955  0.84675040  0.93160928     0.18300
H234        H  0.40349619  0.88071724  0.56688938     0.18200
N235        N  0.37581200  0.79054839  0.57100226    -0.88500
H236        H  0.36036872  0.95621238  0.41908620     0.35600
H237        H  0.38628572  0.91607986  0.40115988     0.40700
H238        H  0.39389019  0.74052792  0.04083773     0.40300
H239        H  0.37418636  0.76932370  0.07949706     0.35200
C240        C  0.28869970  0.62855766  0.13275683    -0.26500
C241        C  0.26456228  0.65729801  0.14523401    -0.14600
C242        C  0.25631838  0.70411648  0.12007510     0.36100
C243        C  0.27141268  0.71929419  0.08283587    -0.26000
C244        C  0.29424740  0.68859073  0.06928577    -0.15200
C245        C  0.30335714  0.64338365  0.09489292     0.37100
N246        N  0.32715825  0.61160434  0.08283136    -0.89400
H247        H  0.29558315  0.59306082  0.15166158     0.18300
H248        H  0.26471500  0.75460642  0.06350823     0.18200
N249        N  0.23198347  0.73581419  0.12993769    -0.88500
H250        H  0.34509409  0.63629999  0.08036873     0.35600
H251        H  0.32279214  0.59707928  0.05234936     0.40700
H252        H  0.23487377  0.75055144  0.16069180     0.40300
H253        H  0.21374880  0.71188472  0.12930147     0.35200
C254        C  0.31015341  0.64416498  0.39432277    -0.26500
C255        C  0.30481484  0.69662776  0.40576953    -0.14600
C256        C  0.29005730  0.73205249  0.37611027     0.36100
C257        C  0.27899825  0.71319853  0.33752110    -0.26000
C258        C  0.28185638  0.65920053  0.32779217    -0.15200
C259        C  0.29916772  0.62531120  0.35542332     0.37100
N260        N  0.30439737  0.57088877  0.34549909    -0.89400
H261        H  0.32198116  0.61708230  0.41645667     0.18300
H262        H  0.26609628  0.74010351  0.31672706     0.18200
N263        N  0.28416486  0.78637721  0.38570988    -0.88500
H264        H  0.29660293  0.54598662  0.37081009     0.35600
H265        H  0.32648581  0.56520520  0.34413554     0.40700
H266        H  0.30349751  0.80655328  0.38903835     0.40300
H267        H  0.27330456  0.78651458  0.41501690     0.35200
C268        C  0.33570544  0.77777020  0.49497639     0.02900
C269        C  0.33532871  0.74223000  0.95272912    -0.13200
C270        C  0.31377248  0.70375081  0.95104326     0.00400
C271        C  0.30131755  0.68382604  0.98960298    -0.11700
C272        C  0.30113747  0.71479818  0.52631871     0.02900
C273        C  0.31859255  0.75971811  0.52962653    -0.11200
H274        H  0.34568817  0.75556871  0.92300338     0.08500
H275        H  0.28488047  0.65347582  0.98867295     0.06100
H276        H  0.31832391  0.78064293  0.55924403     0.05900
C277        C  0.09437456  0.80565086  0.48637941     0.02900
C278        C  0.11036906  0.78499626  0.95549965    -0.13200
C279        C  0.12494798  0.73650165  0.96381564     0.00400
C280        C  0.12486422  0.71198042  0.00505265    -0.11700
C281        C  0.10982709  0.73233729  0.53605255     0.02900
C282        C  0.09386592  0.77911042  0.52760618    -0.11200
H283        H  0.11097665  0.80463940  0.92348300     0.08500
H284        H  0.13747148  0.67594342  0.01134884     0.06100
H285        H  0.08111237  0.79482239  0.55306498     0.05900
C286        C  0.30433655  0.28656405  0.49744986     0.02900
C287        C  0.28913110  0.28951063  0.95494616    -0.13200
C288        C  0.26704558  0.32674114  0.94825469     0.00400
C289        C  0.25620865  0.35249651  0.98372862    -0.11700
C290        C  0.26817103  0.34599066  0.52441046     0.02900
C291        C  0.29153411  0.31158182  0.53197228    -0.11200
H292        H  0.29721476  0.26929691  0.92745228     0.08500
H293        H  0.23972921  0.38276277  0.97855361     0.06100
H294        H  0.30074896  0.30692356  0.56428017     0.05900
N295        N  0.46289287  0.98467128  0.49387648    -0.36800
N296        N  0.50168958  0.07457070  0.49001421    -0.57400
N297        N  0.45424315  0.14453204  0.50440256    -0.36800
N298        N  0.41564492  0.05456476  0.51126182    -0.57400
C299        C  0.48852942  0.95973098  0.49796606     0.26800
C300        C  0.44279012  0.94863568  0.50654730     0.26800
C301        C  0.47650741  0.17758355  0.51066167     0.26800
C302        C  0.43104289  0.16747684  0.52120359     0.26800
C303        C  0.01923699  0.03412125  0.47045784     0.35400
C304        C  0.01485537  0.11971499  0.47443612     0.35400
C305        C  0.40083207  0.00951736  0.50438273     0.35400
C306        C  0.39635782  0.09483677  0.50990115     0.35400
C307        C  0.48466936  0.90744617  0.51379217    -0.22100
C308        C  0.45584168  0.90009827  0.51830501    -0.22100
C309        C  0.46736232  0.22183436  0.53203812    -0.22100
C310        C  0.43854844  0.21555530  0.53845437    -0.22100
C311        C  0.04427863  0.05651875  0.45458059    -0.23100
C312        C  0.04145255  0.11095304  0.45697305    -0.23100
C313        C  0.37190426  0.02103900  0.50023698    -0.23100
C314        C  0.36914258  0.07520773  0.50288267    -0.23100
C315        C  0.01409108  0.97883785  0.47685682    -0.18500
C316        C  0.41297002  0.95781203  0.50445301    -0.18500
C317        C  0.40287253  0.14859988  0.51734885    -0.18500
C318        C  0.50414802  0.17105072  0.49398802    -0.18500
H319        H  0.99870621  0.87223300  0.50571083     0.14400
H320        H  0.44599285  0.86274266  0.52869238     0.14400
H321        H  0.47997959  0.25578666  0.54107396     0.14400
H322        H  0.42457580  0.24358714  0.55336007     0.14400
H323        H  0.06279573  0.03574230  0.44317491     0.12700
H324        H  0.05738733  0.14056752  0.44794484     0.12700
H325        H  0.35444152  0.99351056  0.49609069     0.12700
H326        H  0.34924194  0.09726610  0.50056564     0.12700
H327        H  0.45898194  0.02165584  0.47810105     0.26000
H328        H  0.45400812  0.11243781  0.48442059     0.26000
C329        C  0.06505185  0.36863794  0.49247280     0.02900
C330        C  0.07641487  0.39689253  0.95988119    -0.13200
C331        C  0.09196793  0.44421151  0.96489176     0.00400
C332        C  0.09590070  0.46264517  0.00686972    -0.11700
C333        C  0.08575505  0.43220192  0.54066635     0.02900
C334        C  0.06822608  0.38832627  0.53396010    -0.11200
H335        H  0.07546162  0.37933449  0.92863786     0.08500
H336        H  0.10911049  0.49730052  0.01194139     0.06100
H337        H  0.05946663  0.36638621  0.56182547     0.05900
O338        O  0.21048072  0.59854834  0.84469033    -0.80300
O339        O  0.16247098  0.51924753  0.68643082    -0.80300
O340        O  0.16412799  0.63764079  0.71810783    -0.80400
O341        O  0.15955200  0.50688929  0.78482383    -0.80300
O342        O  0.18552229  0.61170717  0.66105338    -0.80400
O343        O  0.19426724  0.49816268  0.83391711    -0.77600
O344        O  0.16329741  0.43773789  0.71755098    -0.80300
O345        O  0.17607545  0.62989464  0.80150888    -0.80400
C346        C  0.18670696  0.62283600  0.83878869     1.09400
C347        C  0.15233194  0.47138161  0.69025379     1.09300
C348        C  0.16484605  0.63475335  0.67789913     1.09400
C349        C  0.16776073  0.50114690  0.82423971     1.09300
O350        O  0.24450017  0.47837782  0.78208978    -0.80300
O351        O  0.24226205  0.58183749  0.68538857    -0.80400
O352        O  0.23482504  0.65873038  0.78813142    -0.80300
O353        O  0.21662336  0.46678245  0.69204747    -0.80300
O354        O  0.20822134  0.52201208  0.63508719    -0.80400
O355        O  0.25901736  0.58392477  0.78847115    -0.80300
O356        O  0.20518989  0.43443854  0.77745535    -0.80300
O357        O  0.22451514  0.66042176  0.69967642    -0.80400
Co358      Co  0.22685883  0.54029359  0.80867517     1.51500
Co359      Co  0.20435456  0.54826330  0.69022586     1.51700
Co360      Co  0.19996434  0.64195624  0.75164602     1.51600
Co361      Co  0.18724735  0.49169805  0.73881501     1.51500
O362        O  0.20581276  0.56135543  0.75281966    -1.42300
C363        C  0.23088406  0.43575969  0.79003736     1.09300
C364        C  0.24200335  0.63232072  0.67907390     1.09400
C365        C  0.25727724  0.63187016  0.79851767     1.09300
C366        C  0.21900821  0.47890443  0.65084359     1.09300
C367        C  0.13737600  0.41248318  0.63425463    -0.26500
C368        C  0.13024715  0.45510698  0.65963742    -0.14600
C369        C  0.10581326  0.48677399  0.64874227     0.36100
C370        C  0.09054552  0.47758762  0.61041929    -0.26000
C371        C  0.09909793  0.43722937  0.58357707    -0.15200
C372        C  0.12237137  0.40368483  0.59620725     0.37100
N373        N  0.13229388  0.36235889  0.56962769    -0.89400
H374        H  0.15626860  0.38852653  0.64207765     0.18300
H375        H  0.07243452  0.50280563  0.60102830     0.18200
N376        N  0.09631144  0.52879465  0.67518756    -0.88500
H377        H  0.13752839  0.37947911  0.53923116     0.35600
H378        H  0.11747233  0.33624699  0.06823393     0.40700
H379        H  0.10860391  0.53008429  0.70352834     0.40300
H380        H  0.07560003  0.51934978  0.68511428     0.35200
C381        C  0.11804675  0.48429082  0.85124825    -0.26500
C382        C  0.14702443  0.49430397  0.85998128    -0.14600
C383        C  0.15639531  0.49504857  0.90364808     0.36100
C384        C  0.13778297  0.48043698  0.93691096    -0.26000
C385        C  0.10927518  0.46710172  0.92838794    -0.15200
C386        C  0.09906397  0.47126136  0.88509597     0.37100
N387        N  0.06953803  0.46224562  0.87534188    -0.89400
H388        H  0.11019877  0.48518379  0.81809716     0.18300
H389        H  0.14635875  0.47746079  0.96963954     0.18200
N390        N  0.18501262  0.50989763  0.91477793    -0.88500
H391        H  0.06133004  0.49685166  0.85928653     0.35600
H392        H  0.06826185  0.43116997  0.85405493     0.40700
H393        H  0.19458100  0.47781452  0.93255812     0.40300
H394        H  0.18402896  0.54243798  0.93462031     0.35200
C395        C  0.51628653  0.26208316  0.94804886    -0.26500
C396        C  0.02348830  0.21669128  0.48372269    -0.14600
C397        C  0.04349806  0.22495817  0.51711497     0.36100
C398        C  0.05757867  0.27386435  0.51821117    -0.26000
C399        C  0.05139624  0.31586168  0.48745932    -0.15200
C400        C  0.53060923  0.31076433  0.95185594     0.37100
N401        N  0.52402428  0.35490837  0.92204168    -0.89400
H402        H  0.50043698  0.25838271  0.92251404     0.18300
H403        H  0.07296055  0.27942527  0.54404891     0.18200
N404        N  0.04885715  0.18536366  0.55141293    -0.88500
H405        H  0.50215248  0.36290082  0.92365459     0.35600
H406        H  0.52835252  0.34324637  0.89080560     0.40700
H407        H  0.02958785  0.17645779  0.56681768     0.40300
H408        H  0.05645968  0.15067483  0.53803025     0.35200
C409        C  0.37374940  0.21935164  0.97122869    -0.26500
C410        C  0.37920550  0.18810931  0.51709710    -0.14600
C411        C  0.35712636  0.18561927  0.54788727     0.36100
C412        C  0.33294479  0.21806630  0.54084667    -0.26000
C413        C  0.33081721  0.25450058  0.50479909    -0.15200
C414        C  0.35054225  0.25474624  0.96958376     0.37100
N415        N  0.34935303  0.29785763  0.93697992    -0.89400
H416        H  0.38981654  0.22285072  0.94634867     0.18300
H417        H  0.31552268  0.21417691  0.56347317     0.18200
N418        N  0.35848775  0.15080612  0.58632386    -0.88500
H419        H  0.36714516  0.29708619  0.91696922     0.35600
H420        H  0.35035785  0.33374221  0.95282241     0.40700
H421        H  0.37803761  0.13075674  0.58940309     0.40300
H422        H  0.34258765  0.12186787  0.58370277     0.35200
C423        C  0.25851032  0.43409002  0.55328200    -0.26500
C424        C  0.25738687  0.37839618  0.55938771    -0.14600
C425        C  0.24600177  0.35520632  0.59800047     0.36100
C426        C  0.23483786  0.38869742  0.62904286    -0.26000
C427        C  0.23470052  0.44455821  0.62168662    -0.15200
C428        C  0.24747954  0.46722650  0.58393421     0.37100
N429        N  0.24943331  0.52408983  0.57651214    -0.89400
H430        H  0.26794207  0.45211536  0.52423634     0.18300
H431        H  0.22509465  0.37115700  0.65798438     0.18200
N432        N  0.24505515  0.29801193  0.60487062    -0.88500
H433        H  0.23880471  0.53472461  0.54736727     0.35600
H434        H  0.27097696  0.53386597  0.57285081     0.40700
H435        H  0.23144501  0.28326391  0.58122934     0.40300
H436        H  0.23602035  0.28747945  0.63482729     0.35200
C437        C  0.27858104  0.36442958  0.87444075    -0.26500
C438        C  0.25800971  0.34439463  0.90368705    -0.14600
C439        C  0.22901277  0.34640523  0.89142218     0.36100
C440        C  0.22085006  0.37156135  0.85163610    -0.26000
C441        C  0.24116980  0.39628635  0.82412508    -0.15200
C442        C  0.27036967  0.39066419  0.83494962     0.37100
N443        N  0.29165972  0.41292030  0.80659012    -0.89400
H444        H  0.30103311  0.36258089  0.88338905     0.18300
H445        H  0.19825927  0.37519308  0.84395109     0.18200
N446        N  0.20773290  0.32429762  0.91989526    -0.88500
H447        H  0.30526053  0.38192920  0.79839751     0.35600
H448        H  0.30368685  0.44023678  0.82363241     0.40700
H449        H  0.19637367  0.29551949  0.90344003     0.40300
H450        H  0.19352379  0.35492152  0.92681540     0.35200
C451        C  0.07933725  0.89544162  0.50798219    -0.26500
C452        C  0.07722198  0.85490601  0.47836993    -0.14600
C453        C  0.05675018  0.85948945  0.44458029     0.36100
C454        C  0.03776515  0.90294987  0.44236338    -0.26000
C455        C  0.03843427  0.94107094  0.47408630    -0.15200
C456        C  0.05991399  0.93824969  0.50651036     0.37100
N457        N  0.06260454  0.97885591  0.04306016    -0.89400
H458        H  0.09534975  0.89220130  0.53362677     0.18300
H459        H  0.02117673  0.90504235  0.41754435     0.18200
N460        N  0.05392944  0.81839006  0.41424998    -0.88500
H461        H  0.07835444  0.96989215  0.56010490     0.35600
H462        H  0.04263014  0.97376233  0.55721068     0.40700
H463        H  0.05662664  0.83953044  0.88571983     0.40300
H464        H  0.03362462  0.80693048  0.91945975     0.35200
C465        C  0.12202093  0.73787536  0.61357415    -0.26500
C466        C  0.11265977  0.70667896  0.57976455    -0.14600
C467        C  0.11397092  0.65043354  0.58496801     0.36100
C468        C  0.12957996  0.62690826  0.61960008    -0.26000
C469        C  0.14234925  0.65867100  0.65023296    -0.15200
C470        C  0.13674583  0.71414478  0.64914089     0.37100
N471        N  0.14786905  0.74769990  0.68150318    -0.89400
H472        H  0.12070564  0.78113773  0.61021972     0.18300
H473        H  0.13343187  0.58417160  0.62082708     0.18200
N474        N  0.10151220  0.61758116  0.55313989    -0.88500
H475        H  0.17008351  0.74373043  0.68284085     0.35600
H476        H  0.13969671  0.73441569  0.71143067     0.40700
H477        H  0.11502796  0.59498846  0.04542702     0.40300
H478        H  0.08675463  0.59222465  0.56868528     0.35200
C479        C  0.16984664  0.69970574  0.93735555    -0.26500
C480        C  0.14049301  0.70937718  0.93038431    -0.14600
C481        C  0.12609429  0.68560124  0.89591118     0.36100
C482        C  0.14178941  0.65541094  0.86801189    -0.26000
C483        C  0.17134014  0.64727325  0.87388932    -0.15200
C484        C  0.18547281  0.66854585  0.90956638     0.37100
N485        N  0.21549696  0.65947638  0.91704293    -0.89400
H486        H  0.18052448  0.71641563  0.96487867     0.18300
H487        H  0.13063879  0.63822823  0.84110160     0.18200
N488        N  0.09574067  0.69007015  0.88844806    -0.88500
H489        H  0.22226979  0.67663977  0.94554604     0.35600
H490        H  0.22631820  0.67956651  0.89183031     0.40700
H491        H  0.08566254  0.71185375  0.91168130     0.40300
H492        H  0.08721446  0.65150202  0.89143390     0.35200
C493        C  0.35760143  0.86157965  0.46382185    -0.26500
C494        C  0.35547476  0.82391356  0.49905566    -0.14600
C495        C  0.38280696  0.81787680  0.02590283     0.36100
C496        C  0.39846898  0.86518924  0.02671308    -0.26000
C497        C  0.39344510  0.91134591  0.50212112    -0.15200
C498        C  0.37711044  0.90374120  0.46447741     0.37100
N499        N  0.38027489  0.93901595  0.42686992    -0.89400
H500        H  0.34430828  0.85812652  0.43517556     0.18300
H501        H  0.41273439  0.87114643  0.05392312     0.18200
N502        N  0.39034457  0.77554064  0.05702466    -0.88500
H503        H  0.35833146  0.94573722  0.91408976     0.35600
H504        H  0.38408731  0.90878343  0.89205505     0.40700
H505        H  0.37788835  0.75273498  0.55847039     0.40300
H506        H  0.35809850  0.79183914  0.59091588     0.35200
C507        C  0.28128040  0.62783469  0.62561143    -0.26500
C508        C  0.25869989  0.65715648  0.64254490    -0.14600
C509        C  0.25037308  0.70618084  0.62038746     0.36100
C510        C  0.26433268  0.72369235  0.58253423    -0.26000
C511        C  0.28615730  0.69338595  0.56528782    -0.15200
C512        C  0.29496338  0.64535713  0.58746079     0.37100
N513        N  0.31800702  0.61397750  0.57220012    -0.89400
H514        H  0.28806727  0.59034535  0.64168225     0.18300
H515        H  0.25778963  0.76108209  0.56600889     0.18200
N516        N  0.22720580  0.73835015  0.63419992    -0.88500
H517        H  0.33620813  0.63802217  0.57010325     0.35600
H518        H  0.31270722  0.60215731  0.54118707     0.40700
H519        H  0.23167531  0.75046070  0.66540408     0.40300
H520        H  0.20850742  0.71567178  0.63409309     0.35200
C521        C  0.30634513  0.63475356  0.89721715    -0.26500
C522        C  0.30270895  0.68759931  0.90869869    -0.14600
C523        C  0.28711483  0.72372135  0.88068735     0.36100
C524        C  0.27499434  0.70594828  0.84242011    -0.26000
C525        C  0.27721286  0.65215670  0.83178230    -0.15200
C526        C  0.29377348  0.61659898  0.85925055     0.37100
N527        N  0.29663104  0.56124653  0.85027590    -0.89400
H528        H  0.31823908  0.60688798  0.91862259     0.18300
H529        H  0.26209113  0.73370460  0.82239405     0.18200
N530        N  0.28159496  0.77768739  0.89168884    -0.88500
H531        H  0.28829993  0.53826046  0.87631574     0.35600
H532        H  0.31838633  0.55237312  0.84830916     0.40700
H533        H  0.30100795  0.79777274  0.89424871     0.40300
H534        H  0.27158217  0.77684993  0.92172892     0.35200
C535        C  0.84108969  0.76786113  0.00143832     0.02900
C536        C  0.83242642  0.74959124  0.45380049    -0.13200
C537        C  0.81308414  0.70746173  0.44967732     0.00400
C538        C  0.79912755  0.68607402  0.48660820    -0.11700
C539        C  0.80685690  0.70710694  0.03604213     0.02900
C540        C  0.82537452  0.75060699  0.03777513    -0.11200
H541        H  0.84404769  0.76419278  0.42556395     0.08500
H542        H  0.78453014  0.65283087  0.48394098     0.06100
H543        H  0.82652496  0.77201472  0.06721230     0.05900
C544        C  0.59884526  0.81204399  0.98868854     0.02900
C545        C  0.61385421  0.79241943  0.46017649    -0.13200
C546        C  0.63038679  0.74615066  0.46812489     0.00400
C547        C  0.63167877  0.72188311  0.50947030    -0.11700
C548        C  0.61288668  0.73858935  0.03924934     0.02900
C549        C  0.59697228  0.78520798  0.02971911    -0.11200
H550        H  0.61298534  0.81177368  0.42803529     0.08500
H551        H  0.64522975  0.68698404  0.51536399     0.06100
H552        H  0.58316946  0.80044389  0.05412260     0.05900
C553        C  0.80283005  0.28331537  0.00566125     0.02900
C554        C  0.79121456  0.29357236  0.45646842    -0.13200
C555        C  0.76755851  0.32735692  0.44927066     0.00400
C556        C  0.75581889  0.35265274  0.48439156    -0.11700
C557        C  0.76686966  0.34337328  0.03246225     0.02900
C558        C  0.79030352  0.30897484  0.04016408    -0.11200
H559        H  0.79980813  0.27317279  0.42945074     0.08500
H560        H  0.73819432  0.38047714  0.47898677     0.06100
H561        H  0.79971399  0.30480448  0.07236728     0.05900
N562        N  0.96329444  0.98271515  0.99367313    -0.36800
N563        N  0.00166924  0.07343882  0.98924027    -0.57400
N564        N  0.95367114  0.14288663  0.00449866    -0.36800
N565        N  0.91565331  0.05188272  0.01287049    -0.57400
C566        C  0.98890939  0.95754169  0.99443721     0.26800
C567        C  0.94341650  0.94565256  0.00493907     0.26800
C568        C  0.97574029  0.17682057  0.00933666     0.26800
C569        C  0.93041005  0.16591668  0.02114364     0.26800
C570        C  0.52113472  0.03799759  0.96300867     0.35400
C571        C  0.51401534  0.12305441  0.96504012     0.35400
C572        C  0.90106425  0.00620922  0.00713673     0.35400
C573        C  0.89605109  0.09166947  0.01262420     0.35400
C574        C  0.98525897  0.90384875  0.00624044    -0.22100
C575        C  0.95663935  0.89610100  0.01192433    -0.22100
C576        C  0.96638165  0.22190156  0.02941534    -0.22100
C577        C  0.93771962  0.21507143  0.03671325    -0.22100
C578        C  0.54560640  0.06245789  0.94711317    -0.23100
C579        C  0.54099836  0.11662897  0.94809044    -0.23100
C580        C  0.87198287  0.01689150  0.00485037    -0.23100
C581        C  0.86886050  0.07107107  0.00747530    -0.23100
C582        C  0.51768311  0.98261287  0.97096718    -0.18500
C583        C  0.91355056  0.95472024  0.00590472    -0.18500
C584        C  0.90229322  0.14593851  0.01912322    -0.18500
C585        C  0.00349416  0.17023168  0.99298028    -0.18500
H586        H  0.50530635  0.87514254  0.00062869     0.14400
H587        H  0.94709344  0.85762986  0.01958100     0.14400
H588        H  0.97878392  0.25664515  0.03720647     0.14400
H589        H  0.92372252  0.24342303  0.05119033     0.14400
H590        H  0.56492746  0.04325713  0.93684828     0.12700
H591        H  0.55617518  0.14765411  0.93909840     0.12700
H592        H  0.85466879  0.98879961  0.00169324     0.12700
H593        H  0.84876652  0.09254473  0.00625180     0.12700
H594        H  0.95913466  0.02126728  0.98103441     0.26000
H595        H  0.95358372  0.10975836  0.98554049     0.26000
C596        C  0.56509998  0.36777763  0.99310559     0.02900
C597        C  0.57834050  0.39683193  0.46557700    -0.13200
C598        C  0.59368688  0.44414023  0.47157206     0.00400
C599        C  0.59795542  0.46087680  0.51396182    -0.11700
C600        C  0.58603363  0.42896113  0.04322926     0.02900
C601        C  0.56877857  0.38499063  0.03535974    -0.11200
H602        H  0.57692435  0.38080181  0.43376870     0.08500
H603        H  0.61096162  0.49565875  0.51960574     0.06100
H604        H  0.55997631  0.36195995  0.06263024     0.05900
O605        O  0.71163148  0.60113833  0.34795132    -0.80300
O606        O  0.66113072  0.52182687  0.18953512    -0.80300
O607        O  0.66372836  0.64045253  0.22220673    -0.80400
O608        O  0.65847568  0.51100058  0.29064109    -0.80300
O609        O  0.68512263  0.61419041  0.16518255    -0.80400
O610        O  0.69404039  0.50117425  0.33830663    -0.77600
O611        O  0.66003675  0.44169781  0.22311505    -0.80300
O612        O  0.67646671  0.63207264  0.30599733    -0.80400
C613        C  0.68797459  0.62611787  0.34279866     1.09400
C614        C  0.65013259  0.47461158  0.19429620     1.09300
C615        C  0.66454430  0.63774540  0.18193723     1.09400
C616        C  0.66740305  0.50465804  0.32969918     1.09300
O617        O  0.74297190  0.47873220  0.28478019    -0.80300
O618        O  0.74166070  0.58211895  0.19001194    -0.80400
O619        O  0.73542629  0.65901373  0.29033470    -0.80300
O620        O  0.71342880  0.46772184  0.19612098    -0.80300
O621        O  0.70718909  0.52378291  0.13882767    -0.80400
O622        O  0.75935297  0.58372609  0.29063326    -0.80300
O623        O  0.70295313  0.43655587  0.28172165    -0.80300
O624        O  0.72428741  0.66135528  0.20347758    -0.80400
Co625      Co  0.72669160  0.54171951  0.31173958     1.51500
Co626      Co  0.70336612  0.54989837  0.19405095     1.51700
Co627      Co  0.69981371  0.64356333  0.25538728     1.51600
Co628      Co  0.68502804  0.49448649  0.24355891     1.51500
O629        O  0.70489418  0.56297558  0.25655615    -1.42300
C630        C  0.72893350  0.43664387  0.29307556     1.09300
C631        C  0.74225422  0.63266414  0.18441308     1.09400
C632        C  0.75821815  0.63235796  0.29909425     1.09300
C633        C  0.71665523  0.47977923  0.15505380     1.09300
C634        C  0.63498306  0.41217644  0.14059710    -0.26500
C635        C  0.62839297  0.45768972  0.16309143    -0.14600
C636        C  0.60482949  0.49017860  0.14921219     0.36100
C637        C  0.59014894  0.47882268  0.11082794    -0.26000
C638        C  0.59815115  0.43525471  0.08690794    -0.15200
C639        C  0.62042773  0.40101758  0.10256671     0.37100
N640        N  0.63002292  0.35671572  0.07891257    -0.89400
H641        H  0.65317975  0.38742101  0.15065431     0.18300
H642        H  0.57293202  0.50489875  0.09901480     0.18200
N643        N  0.59552830  0.53500005  0.17274532    -0.88500
H644        H  0.63605143  0.37089481  0.04799159     0.35600
H645        H  0.61404047  0.32762931  0.58373541     0.40700
H646        H  0.60721551  0.53780467  0.20151471     0.40300
H647        H  0.57443061  0.52774209  0.18191735     0.35200
C648        C  0.61810490  0.48877455  0.35828085    -0.26500
C649        C  0.64731575  0.49730530  0.36619759    -0.14600
C650        C  0.65747240  0.49577002  0.40959443     0.36100
C651        C  0.63919194  0.48090773  0.44322913    -0.26000
C652        C  0.61046423  0.46875410  0.43529292    -0.15200
C653        C  0.59958720  0.47493947  0.39248277     0.37100
N654        N  0.56986027  0.46692720  0.38356738    -0.89400
H655        H  0.60970763  0.49125503  0.32541891     0.18300
H656        H  0.64818891  0.47635606  0.47566237     0.18200
N657        N  0.68656367  0.50814228  0.42002252    -0.88500
H658        H  0.56165432  0.50223000  0.36862450     0.35600
H659        H  0.56802286  0.43673775  0.36154796     0.40700
H660        H  0.69574443  0.47477954  0.43664842     0.40300
H661        H  0.68662774  0.53989703  0.44072575     0.35200
C662        C  0.01839666  0.25723851  0.45154625    -0.26500
C663        C  0.52114414  0.21922054  0.97822367    -0.14600
C664        C  0.54138839  0.22436308  0.01189748     0.36100
C665        C  0.55610660  0.27233489  0.01504857    -0.26000
C666        C  0.55045203  0.31638113  0.98609950    -0.15200
C667        C  0.03195915  0.30694494  0.45335616     0.37100
N668        N  0.02484532  0.34893384  0.42180446    -0.89400
H669        H  0.00265221  0.25120078  0.42626366     0.18300
H670        H  0.57172752  0.27543145  0.04094724     0.18200
N671        N  0.54646780  0.18241961  0.04443002    -0.88500
H672        H  0.00284798  0.35584698  0.42290485     0.35600
H673        H  0.02954367  0.33557848  0.39120726     0.40700
H674        H  0.52712331  0.17276854  0.05933714     0.40300
H675        H  0.55404171  0.14869841  0.02963012     0.35200
C676        C  0.87640226  0.22453957  0.47609776    -0.26500
C677        C  0.87826748  0.18490899  0.02039906    -0.14600
C678        C  0.85715339  0.18237774  0.05279824     0.36100
C679        C  0.83286405  0.21519420  0.04775951    -0.26000
C680        C  0.82973960  0.25201884  0.01211473    -0.15200
C681        C  0.85315508  0.25984949  0.47217324     0.37100
N682        N  0.85167687  0.29912366  0.43658093    -0.89400
H683        H  0.89222576  0.22470833  0.45083441     0.18300
H684        H  0.81612350  0.21120100  0.07153177     0.18200
N685        N  0.85967565  0.14739783  0.09101944    -0.88500
H686        H  0.86933344  0.29597043  0.41652082     0.35600
H687        H  0.85277419  0.33687402  0.44949182     0.40700
H688        H  0.87922867  0.12724241  0.09256997     0.40300
H689        H  0.84363465  0.11856027  0.08951002     0.35200
C690        C  0.76016864  0.43174361  0.06249061    -0.26500
C691        C  0.75606006  0.37640389  0.06689734    -0.14600
C692        C  0.74059928  0.35425740  0.10222594     0.36100
C693        C  0.72895535  0.38848155  0.13224100    -0.26000
C694        C  0.73215559  0.44416274  0.12680032    -0.15200
C695        C  0.74849797  0.46588372  0.09205982     0.37100
N696        N  0.75323900  0.52257998  0.08699540    -0.89400
H697        H  0.77232221  0.44837104  0.03544184     0.18300
H698        H  0.71630050  0.37192804  0.15873913     0.18200
N699        N  0.73606365  0.29749143  0.10663402    -0.88500
H700        H  0.76551227  0.53201445  0.05967594     0.35600
H701        H  0.76537618  0.53325387  0.11373530     0.40700
H702        H  0.72365740  0.28669727  0.08011773     0.40300
H703        H  0.72417815  0.28771240  0.13427907     0.35200
C704        C  0.77788863  0.36341015  0.37455713    -0.26500
C705        C  0.75783951  0.34301495  0.40449053    -0.14600
C706        C  0.72866216  0.34441375  0.39297349     0.36100
C707        C  0.71984378  0.37019312  0.35369117    -0.26000
C708        C  0.73967611  0.39591015  0.32591012    -0.15200
C709        C  0.76903294  0.39012151  0.33559496     0.37100
N710        N  0.78986509  0.41313986  0.30680987    -0.89400
H711        H  0.80046078  0.36204145  0.38275951     0.18300
H712        H  0.69714868  0.37369632  0.34676879     0.18200
N713        N  0.70785094  0.32133360  0.42179631    -0.88500
H714        H  0.80340624  0.38248664  0.29776092     0.35600
H715        H  0.80206656  0.44023124  0.32382205     0.40700
H716        H  0.69647512  0.29260736  0.40530334     0.40300
H717        H  0.69353680  0.35146894  0.42944103     0.35200
C718        C  0.58168907  0.90094913  0.00955544    -0.26500
C719        C  0.58174162  0.86112875  0.97916377    -0.14600
C720        C  0.56350132  0.86645085  0.94252905     0.36100
C721        C  0.54468584  0.91002119  0.93797285    -0.26000
C722        C  0.54306205  0.94722506  0.97021942    -0.15200
C723        C  0.56214946  0.94354325  0.00585725     0.37100
N724        N  0.56559119  0.98943852  0.53919118    -0.89400
H725        H  0.59594400  0.89721096  0.03745560     0.18300
H726        H  0.52964397  0.91245724  0.91098779     0.18200
N727        N  0.56248504  0.82579152  0.91160331    -0.88500
H728        H  0.57622312  0.97317776  0.06304274     0.35600
H729        H  0.54087026  0.97646812  0.05428408     0.40700
H730        H  0.55212138  0.82709713  0.39814666     0.40300
H731        H  0.53237423  0.79825911  0.43832784     0.35200
C732        C  0.62260433  0.74242988  0.11758292    -0.26500
C733        C  0.61405797  0.71207913  0.08281131    -0.14600
C734        C  0.61531514  0.65575939  0.08723440     0.36100
C735        C  0.63018345  0.63147078  0.12228453    -0.26000
C736        C  0.64236905  0.66244039  0.15396831    -0.15200
C737        C  0.63682774  0.71794982  0.15334892     0.37100
N738        N  0.64783605  0.75092207  0.18618284    -0.89400
H739        H  0.62138137  0.78572704  0.11472614     0.18300
H740        H  0.63412792  0.58877447  0.12292579     0.18200
N741        N  0.60387824  0.62365088  0.05407311    -0.88500
H742        H  0.67004950  0.74676756  0.18765793     0.35600
H743        H  0.63949955  0.73726773  0.21590300     0.40700
H744        H  0.62252438  0.60275941  0.54426809     0.40300
H745        H  0.58893923  0.59751640  0.06829951     0.35200
C746        C  0.67488346  0.71057000  0.43857410    -0.26500
C747        C  0.64532383  0.71934156  0.43387875    -0.14600
C748        C  0.62985426  0.69340218  0.40177404     0.36100
C749        C  0.64423820  0.66059327  0.37436892    -0.26000
C750        C  0.67394794  0.65297532  0.37795913    -0.15200
C751        C  0.68945786  0.67763466  0.41079808     0.37100
N752        N  0.71980631  0.67030809  0.41523552    -0.89400
H753        H  0.68649890  0.72916541  0.46434334     0.18300
H754        H  0.63204908  0.64133104  0.34952272     0.18200
N755        N  0.59945255  0.69822056  0.39714213    -0.88500
H756        H  0.72776763  0.69041096  0.44164380     0.35600
H757        H  0.72896869  0.68861728  0.38774586     0.40700
H758        H  0.59428404  0.73828722  0.38967940     0.40300
H759        H  0.59012286  0.68625986  0.42657694     0.35200
C760        C  0.85942152  0.85383947  0.96879601    -0.26500
C761        C  0.86028608  0.81486976  0.00327298    -0.14600
C762        C  0.87339571  0.82861784  0.53226067     0.36100
C763        C  0.89060327  0.87408408  0.53320986    -0.26000
C764        C  0.89440051  0.90752673  0.00521479    -0.15200
C765        C  0.87721663  0.89862028  0.96868490     0.37100
N766        N  0.87804440  0.93478372  0.93127335    -0.89400
H767        H  0.84515701  0.84936848  0.94137196     0.18300
H768        H  0.90424513  0.87942805  0.56124385     0.18200
N769        N  0.87741991  0.78831323  0.56645990    -0.88500
H770        H  0.85498705  0.95639991  0.41835571     0.35600
H771        H  0.88067390  0.91813271  0.39752217     0.40700
H772        H  0.89114876  0.74498021  0.05401367     0.40300
H773        H  0.86956543  0.77269380  0.09088660     0.35200
C774        C  0.78569026  0.62950791  0.13913977    -0.26500
C775        C  0.76094759  0.65718204  0.15049260    -0.14600
C776        C  0.75262582  0.70369749  0.12499290     0.36100
C777        C  0.76806993  0.71914493  0.08810333    -0.26000
C778        C  0.79152123  0.68928834  0.07550120    -0.15200
C779        C  0.80089694  0.64491882  0.10191035     0.37100
N780        N  0.82565998  0.61474602  0.09143854    -0.89400
H781        H  0.79274583  0.59453867  0.15856044     0.18300
H782        H  0.76130929  0.75416890  0.06847437     0.18200
N783        N  0.72801696  0.73498721  0.13434324    -0.88500
H784        H  0.84311315  0.64070167  0.08981004     0.35600
H785        H  0.82240142  0.59963603  0.06087581     0.40700
H786        H  0.73059884  0.74992373  0.16508509     0.40300
H787        H  0.70989906  0.71075489  0.13356367     0.35200
C788        C  0.81041453  0.63970888  0.39311504    -0.26500
C789        C  0.80437490  0.69134367  0.40603873    -0.14600
C790        C  0.78792984  0.72634563  0.37829617     0.36100
C791        C  0.77648310  0.70819680  0.33982170    -0.26000
C792        C  0.77975592  0.65472466  0.32900662    -0.15200
C793        C  0.79845460  0.62117108  0.35468191     0.37100
N794        N  0.80420561  0.56746331  0.34326185    -0.89400
H795        H  0.82346091  0.61295041  0.41381659     0.18300
H796        H  0.76252667  0.73485973  0.32052549     0.18200
N797        N  0.78040771  0.77914136  0.39011605    -0.88500
H798        H  0.79768148  0.54138636  0.36870481     0.35600
H799        H  0.82628375  0.56323087  0.34008430     0.40700
H800        H  0.79902664  0.80155430  0.39320976     0.40300
H801        H  0.77016047  0.77632959  0.41997326     0.35200
C802        C  0.83559366  0.77469838  0.49325455     0.02900
C803        C  0.83606013  0.74365828  0.96203102    -0.13200
C804        C  0.81509996  0.70422841  0.95867724     0.00400
C805        C  0.80135446  0.68424459  0.99625225    -0.11700
C806        C  0.80255386  0.71015932  0.52637525     0.02900
C807        C  0.81926212  0.75619930  0.52860058    -0.11200
H808        H  0.84748443  0.75713555  0.93328269     0.08500
H809        H  0.78543046  0.65309899  0.99417118     0.06100
H810        H  0.81901873  0.77775562  0.55793940     0.05900
C811        C  0.59838882  0.81355728  0.49402861     0.02900
C812        C  0.61661773  0.79127407  0.95727495    -0.13200
C813        C  0.63228582  0.74434261  0.96701888     0.00400
C814        C  0.63095156  0.71942436  0.00802129    -0.11700
C815        C  0.61574282  0.74136365  0.54306859     0.02900
C816        C  0.59948903  0.78797878  0.53559193    -0.11200
H817        H  0.61821399  0.81123375  0.92548899     0.08500
H818        H  0.64409895  0.68431932  0.01544624     0.06100
H819        H  0.58733334  0.80368679  0.56170197     0.05900
C820        C  0.80442747  0.28772841  0.49763432     0.02900
C821        C  0.79069258  0.29059274  0.96389142    -0.13200
C822        C  0.76805144  0.32639734  0.95567817     0.00400
C823        C  0.75603296  0.35222583  0.99021960    -0.11700
C824        C  0.76786412  0.34527531  0.52606340     0.02900
C825        C  0.79222063  0.31309762  0.53250253    -0.11200
H826        H  0.79973131  0.27032485  0.93711611     0.08500
H827        H  0.73919076  0.38154785  0.98396818     0.06100
H828        H  0.80247294  0.31034334  0.56415819     0.05900
N829        N  0.96186044  0.98309308  0.48700398    -0.36800
N830        N  0.00140193  0.07276561  0.48266385    -0.57400
N831        N  0.95429326  0.14399546  0.49763676    -0.36800
N832        N  0.91516343  0.05420416  0.50599856    -0.57400
C833        C  0.98725252  0.95701033  0.48884483     0.26800
C834        C  0.94144649  0.94698594  0.49840109     0.26800
C835        C  0.97652485  0.17775553  0.50158246     0.26800
C836        C  0.93120006  0.16818823  0.51369142     0.26800
C837        C  0.51916860  0.03660508  0.47587049     0.35400
C838        C  0.51426003  0.12189291  0.48015885     0.35400
C839        C  0.89990931  0.00931423  0.50013975     0.35400
C840        C  0.89610420  0.09487962  0.50578500     0.35400
C841        C  0.98287903  0.90372121  0.50147290    -0.22100
C842        C  0.95407108  0.89717070  0.50664945    -0.22100
C843        C  0.96739717  0.22391148  0.52040030    -0.22100
C844        C  0.93874383  0.21789489  0.52790297    -0.22100
C845        C  0.54302087  0.05976901  0.45673370    -0.23100
C846        C  0.53982559  0.11414670  0.45926911    -0.23100
C847        C  0.87097915  0.02138975  0.49796841    -0.23100
C848        C  0.86862937  0.07563837  0.50059114    -0.23100
C849        C  0.51498710  0.98146741  0.48430093    -0.18500
C850        C  0.91164229  0.95727718  0.49872752    -0.18500
C851        C  0.90299720  0.14888351  0.51199099    -0.18500
C852        C  0.00433554  0.16977234  0.48593375    -0.18500
H853        H  0.50085347  0.87705956  0.52038658     0.14400
H854        H  0.94394771  0.85943314  0.51511608     0.14400
H855        H  0.97994047  0.25881217  0.52729155     0.14400
H856        H  0.92489552  0.24716257  0.54155012     0.14400
H857        H  0.56107601  0.03953817  0.44334898     0.12700
H858        H  0.55497111  0.14436291  0.44838101     0.12700
H859        H  0.85324593  0.99419870  0.49495238     0.12700
H860        H  0.84884073  0.09811389  0.49956008     0.12700
H861        H  0.95825508  0.02146696  0.47377391     0.26000
H862        H  0.95399255  0.11012597  0.47970851     0.26000
C863        C  0.56710338  0.36716918  0.50107531     0.02900
C864        C  0.57845101  0.39613795  0.95868826    -0.13200
C865        C  0.59456914  0.44218323  0.96591404     0.00400
C866        C  0.59752733  0.45912441  0.00839931    -0.11700
C867        C  0.58862901  0.42921872  0.54957877     0.02900
C868        C  0.57195513  0.38423667  0.54296357    -0.11200
H869        H  0.57812971  0.37994422  0.92689428     0.08500
H870        H  0.61110486  0.49284614  0.01498454     0.06100
H871        H  0.56456208  0.36030889  0.57078560     0.05900
O872        O  0.71645125  0.60054104  0.84990563    -0.80300
O873        O  0.66698452  0.52043870  0.69239073    -0.80300
O874        O  0.66924754  0.63878664  0.72359300    -0.80400
O875        O  0.66500566  0.50871435  0.79046575    -0.80300
O876        O  0.69018471  0.61243398  0.66633859    -0.80400
O877        O  0.69958923  0.50020354  0.83984652    -0.77600
O878        O  0.66789484  0.43910811  0.72373468    -0.80300
O879        O  0.68178172  0.63152033  0.80709839    -0.80400
C880        C  0.69277894  0.62520151  0.84422272     1.09400
C881        C  0.65664046  0.47275926  0.69674308     1.09300
C882        C  0.66987040  0.63633898  0.68332292     1.09400
C883        C  0.67311634  0.50255754  0.82989064     1.09300
O884        O  0.74951008  0.47874394  0.78810071    -0.80300
O885        O  0.74692583  0.58192787  0.69003299    -0.80400
O886        O  0.74059171  0.65963437  0.79236849    -0.80300
O887        O  0.72092533  0.46714843  0.69653494    -0.80300
O888        O  0.71214590  0.52299118  0.64017877    -0.80400
O889        O  0.76455090  0.58448043  0.79324774    -0.80300
O890        O  0.70997379  0.43563099  0.78291885    -0.80300
O891        O  0.72952597  0.66088660  0.70401685    -0.80400
Co892      Co  0.73227353  0.54150636  0.81406448     1.51500
Co893      Co  0.70897740  0.54895131  0.69546464     1.51700
Co894      Co  0.70536511  0.64295829  0.75660180     1.51600
Co895      Co  0.69224882  0.49286297  0.74417102     1.51500
O896        O  0.71111341  0.56229888  0.75801850    -1.42300
C897        C  0.73553442  0.43652428  0.79608983     1.09300
C898        C  0.74659533  0.63228578  0.68307365     1.09400
C899        C  0.76297835  0.63260948  0.80292500     1.09300
C900        C  0.72263486  0.47935114  0.65520467     1.09300
C901        C  0.63871829  0.40986465  0.64546229    -0.26500
C902        C  0.63382200  0.45661627  0.66723509    -0.14600
C903        C  0.61109179  0.49120134  0.65352990     0.36100
C904        C  0.59574306  0.48073996  0.61561359    -0.26000
C905        C  0.60202547  0.43569977  0.59233155    -0.15200
C906        C  0.62337832  0.39935270  0.60805233     0.37100
N907        N  0.63142895  0.35351438  0.58499639    -0.89400
H908        H  0.65628304  0.38347251  0.65541933     0.18300
H909        H  0.57917949  0.50831901  0.60385740     0.18200
N910        N  0.60329612  0.53721080  0.67683756    -0.88500
H911        H  0.63696992  0.36609400  0.55346515     0.35600
H912        H  0.61312791  0.32994419  0.07589926     0.40700
H913        H  0.61493473  0.53869687  0.70576707     0.40300
H914        H  0.58197881  0.53256452  0.68585440     0.35200
C915        C  0.62301806  0.48747667  0.85514429    -0.26500
C916        C  0.65212169  0.49426937  0.86508288    -0.14600
C917        C  0.66110743  0.49061085  0.90904092     0.36100
C918        C  0.64172484  0.47543518  0.94116143    -0.26000
C919        C  0.61300949  0.46550797  0.93112337    -0.15200
C920        C  0.60339391  0.47363629  0.88782038     0.37100
N921        N  0.57378444  0.46786681  0.87689971    -0.89400
H922        H  0.61549522  0.49168413  0.82185462     0.18300
H923        H  0.64969746  0.46939985  0.97410184     0.18200
N924        N  0.69001968  0.50149349  0.92156485    -0.88500
H925        H  0.56656704  0.50412577  0.86231529     0.35600
H926        H  0.57200803  0.43861617  0.85406246     0.40700
H927        H  0.69844091  0.46730383  0.93799794     0.40300
H928        H  0.68981272  0.53249554  0.94298706     0.35200
C929        C  0.01564996  0.25882911  0.95899317    -0.26500
C930        C  0.52317761  0.21811482  0.49198533    -0.14600
C931        C  0.54610319  0.22272437  0.52160785     0.36100
C932        C  0.56101574  0.27078832  0.52244968    -0.26000
C933        C  0.55294023  0.31523609  0.49532861    -0.15200
C934        C  0.02968739  0.30813888  0.95949446     0.37100
N935        N  0.02142891  0.35051443  0.92895710    -0.89400
H936        H  0.99867413  0.25334074  0.93547245     0.18300
H937        H  0.57849585  0.27389586  0.54546264     0.18200
N938        N  0.55368764  0.18040931  0.55266759    -0.88500
H939        H  0.99963069  0.35792311  0.93253794     0.35600
H940        H  0.02447869  0.33726492  0.89782690     0.40700
H941        H  0.53570472  0.17039797  0.57098842     0.40300
H942        H  0.55996367  0.14696999  0.53629187     0.35200
C943        C  0.87591741  0.22378207  0.98629023    -0.26500
C944        C  0.87945951  0.18864830  0.51208632    -0.14600
C945        C  0.85977056  0.19011994  0.54609287     0.36100
C946        C  0.83565829  0.22308235  0.54117035    -0.26000
C947        C  0.83147285  0.25669454  0.50368516    -0.15200
C948        C  0.85237647  0.25838170  0.98247455     0.37100
N949        N  0.85145297  0.30010102  0.94869461    -0.89400
H950        H  0.89249655  0.22669788  0.96217230     0.18300
H951        H  0.81984563  0.22142503  0.56642561     0.18200
N952        N  0.86392213  0.15905545  0.58591195    -0.88500
H953        H  0.86975520  0.29922584  0.92975561     0.35600
H954        H  0.85159582  0.33673575  0.96349667     0.40700
H955        H  0.88376461  0.16911711  0.59904721     0.40300
H956        H  0.86431634  0.11851310  0.57955221     0.35200
C957        C  0.75901568  0.43354343  0.55506145    -0.26500
C958        C  0.75754526  0.37791513  0.56117095    -0.14600
C959        C  0.74640669  0.35492996  0.60000193     0.36100
C960        C  0.73639651  0.38861176  0.63179739    -0.26000
C961        C  0.73703699  0.44452062  0.62489784    -0.15200
C962        C  0.74902825  0.46691193  0.58636564     0.37100
N963        N  0.75124419  0.52373123  0.57879352    -0.89400
H964        H  0.76799063  0.45131912  0.52557528     0.18300
H965        H  0.72698045  0.37125845  0.66106361     0.18200
N966        N  0.74458799  0.29776337  0.60637006    -0.88500
H967        H  0.73999147  0.53460756  0.55023555     0.35600
H968        H  0.77274428  0.53306148  0.57397208     0.40700
H969        H  0.73038994  0.28417331  0.58300070     0.40300
H970        H  0.73578940  0.28734360  0.63651667     0.35200
C971        C  0.78128382  0.36474705  0.88297203    -0.26500
C972        C  0.76006016  0.34371239  0.91060598    -0.14600
C973        C  0.73138106  0.34558213  0.89658391     0.36100
C974        C  0.72419331  0.37132417  0.85658577    -0.26000
C975        C  0.74512664  0.39696136  0.83067161    -0.15200
C976        C  0.77403203  0.39178363  0.84341696     0.37100
N977        N  0.79599392  0.41548240  0.81708221    -0.89400
H978        H  0.80347650  0.36332233  0.89339061     0.18300
H979        H  0.70180069  0.37466082  0.84751734     0.18200
N980        N  0.70941260  0.32291258  0.92352372    -0.88500
H981        H  0.81017356  0.38519456  0.80933042     0.35600
H982        H  0.80717724  0.44258565  0.83553113     0.40700
H983        H  0.69856968  0.29435418  0.90609797     0.40300
H984        H  0.69492716  0.35331727  0.92987760     0.35200
C985        C  0.58319920  0.90473724  0.51195430    -0.26500
C986        C  0.57982083  0.86072509  0.48606316    -0.14600
C987        C  0.55696967  0.85977923  0.45612801     0.36100
C988        C  0.53740311  0.90216366  0.45328828    -0.26000
C989        C  0.53956142  0.94432055  0.48134028    -0.15200
C990        C  0.56302950  0.94638609  0.51033258     0.37100
N991        N  0.56058223  0.98145302  0.03916142    -0.89400
H992        H  0.60087105  0.90522514  0.53492687     0.18300
H993        H  0.51925496  0.90031459  0.43128812     0.18200
N994        N  0.55244599  0.81411691  0.43081673    -0.88500
H995        H  0.58415818  0.98506885  0.55819103     0.35600
H996        H  0.54841558  0.98676887  0.56044612     0.40700
H997        H  0.56681905  0.84369157  0.88112260     0.40300
H998        H  0.54171807  0.81060547  0.91073270     0.35200
C999        C  0.62851074  0.74353894  0.62081125    -0.26500
C1000       C  0.61883070  0.71408247  0.58616898    -0.14600
C1001       C  0.61967937  0.65769882  0.58986337     0.36100
C1002       C  0.63520118  0.63236133  0.62376112    -0.26000
C1003       C  0.64792203  0.66225989  0.65566871    -0.15200
C1004       C  0.64285732  0.71787646  0.65595755     0.37100
N1005       N  0.65419543  0.74967343  0.68933299    -0.89400
H1006       H  0.62757187  0.78686984  0.61857843     0.18300
H1007       H  0.63886433  0.58962979  0.62359155     0.18200
N1008       N  0.60672844  0.62652645  0.55730886    -0.88500
H1009       H  0.67636525  0.74484980  0.69077159     0.35600
H1010       H  0.64576023  0.73557307  0.71886743     0.40700
H1011       H  0.62043232  0.60048194  0.04239857     0.40300
H1012       H  0.59187470  0.60097081  0.57242675     0.35200
C1013       C  0.67763517  0.70831863  0.94024010    -0.26500
C1014       C  0.64815250  0.71675370  0.93422645    -0.14600
C1015       C  0.63332312  0.69005335  0.90191646     0.36100
C1016       C  0.64832727  0.65772768  0.87491072    -0.26000
C1017       C  0.67804615  0.65106949  0.87929302    -0.15200
C1018       C  0.69285053  0.67566806  0.91292179     0.37100
N1019       N  0.72313688  0.66865884  0.91854022    -0.89400
H1020       H  0.68868557  0.72713646  0.96643855     0.18300
H1021       H  0.63663159  0.63816667  0.84970779     0.18200
N1022       N  0.60291327  0.69371482  0.89669018    -0.88500
H1023       H  0.73054120  0.68860620  0.94537303     0.35600
H1024       H  0.73265615  0.68739410  0.89153675     0.40700
H1025       H  0.59736722  0.73361245  0.88924798     0.40300
H1026       H  0.59346570  0.68130813  0.92593744     0.35200
C1027       C  0.85506254  0.86049209  0.46158381    -0.26500
C1028       C  0.85462453  0.82201504  0.49641691    -0.14600
C1029       C  0.87956833  0.82189273  0.03831979     0.36100
C1030       C  0.89480781  0.86959313  0.04016154    -0.26000
C1031       C  0.89164278  0.91114290  0.49777011    -0.15200
C1032       C  0.87398334  0.90373964  0.46140725     0.37100
N1033       N  0.87534023  0.94006477  0.42414429    -0.89400
H1034       H  0.84096738  0.85666090  0.43385609     0.18300
H1035       H  0.90862257  0.87555281  0.06789903     0.18200
N1036       N  0.88649399  0.77976468  0.06995569    -0.88500
H1037       H  0.85737084  0.94930038  0.92497217     0.35600
H1038       H  0.88421976  0.91311956  0.90491181     0.40700
H1039       H  0.88009940  0.75107582  0.55315460     0.40300
H1040       H  0.85998161  0.78749549  0.58700539     0.35200
C1041       C  0.78522582  0.62711966  0.62876762    -0.26500
C1042       C  0.76232231  0.65602774  0.64520205    -0.14600
C1043       C  0.75258866  0.70287927  0.62125876     0.36100
C1044       C  0.76569942  0.71896203  0.58236595    -0.26000
C1045       C  0.78807315  0.68932412  0.56591091    -0.15200
C1046       C  0.79810925  0.64326458  0.58963924     0.37100
N1047       N  0.82159460  0.61256728  0.57495583    -0.89400
H1048       H  0.79292931  0.59106826  0.64609233     0.18300
H1049       H  0.75817559  0.75482843  0.56454321     0.18200
N1050       N  0.72885582  0.73413076  0.63435414    -0.88500
H1051       H  0.83927764  0.63775606  0.57145365     0.35600
H1052       H  0.81621591  0.59866907  0.54461843     0.40700
H1053       H  0.73339820  0.74879706  0.66470885     0.40300
H1054       H  0.71072833  0.70993407  0.63595618     0.35200
C1055       C  0.80965354  0.63509318  0.90408449    -0.26500
C1056       C  0.80568717  0.68798706  0.91537446    -0.14600
C1057       C  0.79140881  0.72439967  0.88591572     0.36100
C1058       C  0.78065116  0.70681181  0.84668988    -0.26000
C1059       C  0.78272917  0.65286473  0.83650735    -0.15200
C1060       C  0.79843210  0.61718131  0.86504440     0.37100
N1061       N  0.80177641  0.56198344  0.85588861    -0.89400
H1062       H  0.82073200  0.60704706  0.92635970     0.18300
H1063       H  0.76850952  0.73474790  0.82569948     0.18200
N1064       N  0.78554769  0.77843533  0.89638763    -0.88500
H1065       H  0.79267958  0.53863938  0.88108397     0.35600
H1066       H  0.82361843  0.55331147  0.85548486     0.40700
H1067       H  0.80484681  0.79848264  0.90035807     0.40300
H1068       H  0.77448674  0.77778933  0.92555239     0.35200
loop_ 
_geom_bond_atom_site_label_1 
_geom_bond_atom_site_label_2 
_geom_bond_distance 
_geom_bond_site_symmetry_2 
_ccdc_geom_bond_type 
C1            C6   1.403   1_556  A
C1          C269   1.406       .  A
C1          C227   1.486       .  S
C2            C3   1.400       .  A
C2          C268   1.408       .  A
C2            H7   1.083       .  S
C3            C4   1.406       .  A
C3          C255   1.482       .  S
C4          C272   1.405       .  A
C4            H8   1.084       .  S
C5            C6   1.397       .  A
C5          C271   1.402   1_554  A
C5          C244   1.472       .  S
C6            H9   1.080       .  S
C10          C15   1.408   1_556  A
C10         C278   1.406       .  A
C10         C185   1.477       .  S
C11          C12   1.402       .  A
C11         C277   1.407       .  A
C11          H16   1.083       .  S
C12          C13   1.387       .  A
C12         C213   1.465       .  S
C13         C281   1.395       .  A
C13          H17   1.085       .  S
C14          C15   1.397       .  A
C14         C280   1.394       .  A
C14         C199   1.470       .  S
C15          H18   1.084       .  S
C19          C24   1.409   1_556  A
C19         C287   1.406       .  A
C19         C146   1.488   1_556  S
C20          C21   1.398       .  A
C20         C286   1.406       .  A
C20          H25   1.083       .  S
C21          C22   1.402       .  A
C21         C171   1.480       .  S
C22         C290   1.404       .  A
C22          H26   1.084       .  S
C23          C24   1.405       .  A
C23         C289   1.404   1_554  A
C23         C157   1.481       .  S
C24          H27   1.083       .  S
N28          C33   1.353       .  A
N28          C32   1.353       .  A
N28          H60   1.039   1_565  S
N29         C570   1.347       .  A
N29         C571   1.347       .  A
N30          C35   1.352   1_556  A
N30          C34   1.352       .  A
N30          H61   1.040       .  S
N31          C38   1.351       .  A
N31          C39   1.352       .  A
C32          C40   1.385       .  A
C32         C582   1.415       .  A
C33          C49   1.419       .  A
C33          C41   1.390   1_556  A
C34          C42   1.388   1_556  A
C34          C51   1.413       .  A
C35          C50   1.411       .  A
C35          C43   1.385       .  A
C36          C48   1.405   1_545  A
C36          C44   1.385       .  A
C36         N563   1.347       .  A
C37          C45   1.386       .  A
C37         C585   1.407       .  A
C37         N563   1.347       .  A
C38          C46   1.389       .  A
C38          C49   1.417   1_545  A
C39          C47   1.384       .  A
C39          C50   1.412   1_556  A
C40          C41   1.367   1_556  A
C40         H586   1.082   1_556  S
C41          H53   1.079       .  S
C42          C43   1.372       .  A
C42          H54   1.082       .  S
C43          H55   1.082       .  S
C44          C45   1.373       .  A
C44          H56   1.082       .  S
C45          H57   1.082       .  S
C46          C47   1.369       .  A
C46          H58   1.081   1_545  S
C47          H59   1.082       .  S
C48         C566   1.415   1_455  A
C48         C188   1.481       .  S
C49         C230   1.487       .  S
C50         C143   1.490       .  S
C51         C571   1.407       .  A
C51         C663   1.479       .  S
H52         C574   1.082   1_455  S
C62          C67   1.403   1_556  A
C62         C330   1.404       .  A
C62         C132   1.482       .  S
C63          C64   1.404       .  A
C63         C329   1.404       .  A
C63          H68   1.083       .  S
C64          C65   1.405       .  A
C64         C118   1.483       .  S
C65         C333   1.398       .  A
C65          H69   1.084       .  S
C66          C67   1.394       .  A
C66         C332   1.399       .  A
C66         C104   1.475       .  S
C67          H70   1.084       .  S
O71          C79   1.274       .  A
O71         Co91   2.036       .  S
O72          C80   1.291       .  A
O72         Co92   2.102       .  S
O73          C81   1.249       .  A
O73         Co93   1.963       .  S
O74          C82   1.275       .  A
O74         Co94   1.985       .  S
O75          C81   1.259       .  A
O75         Co92   1.988       .  S
O76          C82   1.274       .  A
O76         Co91   2.002       .  S
O77          C80   1.265       .  A
O77         Co94   1.899       .  S
O78          C79   1.255       .  A
O78         Co93   1.931       .  S
C79         C216   1.467       .  S
C80         C101   1.471       .  S
C81         C202   1.455       .  S
C82         C115   1.486       .  S
O83          C96   1.261       .  A
O83         Co91   1.976       .  S
O84          C97   1.267       .  A
O84         Co92   1.966       .  S
O85          C98   1.274       .  A
O85         Co93   2.024       .  S
O86          C99   1.300       .  A
O86         Co94   2.126       .  S
O87          C99   1.262       .  A
O87         Co92   1.877       .  S
O88          C98   1.259       .  A
O88         Co91   1.961       .  S
O89          C96   1.262       .  A
O89         Co94   1.990       .  S
O90          C97   1.276       .  A
O90         Co93   2.021       .  S
Co91         O95   2.025       .  S
Co92         O95   1.983       .  S
Co93         O95   2.031       .  S
Co94         O95   2.014       .  S
C96         C174   1.481       .  S
C97         C241   1.485       .  S
C98         C258   1.490       .  S
C99         C160   1.481       .  S
C100        C101   1.400       .  A
C100        C105   1.392       .  A
C100        H107   1.085       .  S
C101        C102   1.418       .  A
C102        C103   1.407       .  A
C102        N109   1.438       .  S
C103        C104   1.401       .  A
C103        H108   1.083       .  S
C104        C105   1.413       .  A
C105        N106   1.434       .  S
N106        H110   1.046       .  S
N106        H378   1.044       .  S
N109        H112   1.044       .  S
N109        H113   1.046       .  S
H111        N373   1.044       .  S
C114        C115   1.406       .  A
C114        C119   1.406       .  A
C114        H121   1.083       .  S
C115        C116   1.418       .  A
C116        C117   1.395       .  A
C116        N123   1.434       .  S
C117        C118   1.401       .  A
C117        H122   1.084       .  S
C118        C119   1.410       .  A
C119        N120   1.432       .  S
N120        H124   1.045       .  S
N120        H125   1.046       .  S
N123        H126   1.046       .  S
N123        H127   1.046       .  S
C128        C133   1.400       .  A
C128        C930   1.402       .  A
C128        H135   1.084       .  S
C129        C130   1.409   1_556  A
C129        C929   1.401       .  A
C129        C585   1.478       .  S
C130        C131   1.393       .  A
C130        N137   1.433       .  S
C131        C132   1.407   1_554  A
C131        H136   1.083       .  S
C132        C934   1.410       .  A
C133        C933   1.408       .  A
C133        N134   1.432       .  S
N134        H138   1.046       .  S
N134        H139   1.046       .  S
N137        H140   1.045       .  S
N137        H141   1.044       .  S
C142        C147   1.399       .  A
C142        C410   1.400       .  A
C142        H149   1.084       .  S
C143        C144   1.418       .  A
C143        C409   1.400   1_554  A
C144        C145   1.404       .  A
C144        N151   1.438       .  S
C145        C146   1.406       .  A
C145        H150   1.083       .  S
C146        C414   1.415   1_554  A
C147        C413   1.415       .  A
C147        N148   1.439       .  S
N148        H152   1.046       .  S
N148        H153   1.045       .  S
N151        H154   1.044       .  S
N151        H155   1.045       .  S
C156        C157   1.399       .  A
C156        C161   1.399       .  A
C156        H163   1.084       .  S
C157        C158   1.411       .  A
C158        C159   1.412       .  A
C158        N165   1.437       .  S
C159        C160   1.405       .  A
C159        H164   1.084       .  S
C160        C161   1.414       .  A
C161        N162   1.437       .  S
N162        H166   1.046       .  S
N162        H167   1.044       .  S
N165        H168   1.046       .  S
N165        H169   1.045       .  S
C170        C171   1.406       .  A
C170        C175   1.405       .  A
C170        H177   1.084       .  S
C171        C172   1.405       .  A
C172        C173   1.400       .  A
C172        N179   1.432       .  S
C173        C174   1.409       .  A
C173        H178   1.084       .  S
C174        C175   1.409       .  A
C175        N176   1.432       .  S
N176        H180   1.046       .  S
N176        H181   1.046       .  S
N179        H182   1.045       .  S
N179        H183   1.046       .  S
C184        C185   1.404   1_554  A
C184        C189   1.401       .  A
C184        H191   1.084       .  S
C185        C186   1.409       .  A
C186        C187   1.399       .  A
C186        N193   1.432       .  S
C187        C188   1.402       .  A
C187        H192   1.084       .  S
C188        C189   1.409   1_556  A
C189        N457   1.438       .  S
N190        C456   1.438       .  S
N190        H461   1.046       .  S
N190        H462   1.046       .  S
N193        H463   1.045       .  S
N193        H464   1.046       .  S
H194        N457   1.046       .  S
H195        N457   1.046       .  S
H196        N460   1.045       .  S
H197        N460   1.046       .  S
C198        C199   1.403       .  A
C198        C203   1.395       .  A
C198        H205   1.084       .  S
C199        C200   1.410       .  A
C200        C201   1.393       .  A
C200        N207   1.434       .  S
C201        C202   1.396       .  A
C201        H206   1.082       .  S
C202        C203   1.410       .  A
C203        N204   1.433       .  S
N204        H208   1.045       .  S
N204        H209   1.045       .  S
N207        H211   1.045       .  S
N207        H477   1.046       .  S
H210        N474   1.046       .  S
C212        C213   1.406       .  A
C212        C217   1.404       .  A
C212        H219   1.084       .  S
C213        C214   1.412       .  A
C214        C215   1.392       .  A
C214        N221   1.440       .  S
C215        C216   1.404       .  A
C215        H220   1.085       .  S
C216        C217   1.408       .  A
C217        N218   1.437       .  S
N218        H222   1.046       .  S
N218        H223   1.044       .  S
N221        H224   1.042       .  S
N221        H225   1.046       .  S
C226        C227   1.407       .  A
C226        C231   1.397       .  A
C226        H233   1.083       .  S
C227        C495   1.420   1_556  A
C228        C229   1.397       .  A
C228        C494   1.423       .  A
C228        N235   1.433       .  S
C229        C497   1.399       .  A
C229        H234   1.084       .  S
C230        C231   1.407       .  A
C230        C496   1.402   1_556  A
C231        N232   1.433       .  S
N232        H503   1.046       .  S
N232        H504   1.045       .  S
N235        H505   1.046       .  S
N235        H506   1.041       .  S
H236        N499   1.046       .  S
H237        N499   1.045       .  S
H238        N502   1.045       .  S
H239        N502   1.041       .  S
C240        C241   1.407       .  A
C240        C245   1.400       .  A
C240        H247   1.084       .  S
C241        C242   1.422       .  A
C242        C243   1.396       .  A
C242        N249   1.432       .  S
C243        C244   1.397       .  A
C243        H248   1.084       .  S
C244        C245   1.409       .  A
C245        N246   1.432       .  S
N246        H250   1.045       .  S
N246        H251   1.045       .  S
N249        H252   1.045       .  S
N249        H253   1.045       .  S
C254        C255   1.400       .  A
C254        C259   1.406       .  A
C254        H261   1.084       .  S
C255        C256   1.414       .  A
C256        C257   1.399       .  A
C256        N263   1.433       .  S
C257        C258   1.406       .  A
C257        H262   1.084       .  S
C258        C259   1.418       .  A
C259        N260   1.432       .  S
N260        H264   1.046       .  S
N260        H265   1.046       .  S
N263        H266   1.044       .  S
N263        H267   1.046       .  S
C268        C273   1.404       .  A
C268        C494   1.491       .  S
C269        C270   1.399       .  A
C269        H274   1.083       .  S
C270        C271   1.404       .  A
C270        C522   1.478       .  S
C271        H275   1.084       .  S
C272        C273   1.399       .  A
C272        C511   1.480       .  S
C273        H276   1.078       .  S
C277        C282   1.408       .  A
C277        C452   1.478       .  S
C278        C279   1.401       .  A
C278        H283   1.083       .  S
C279        C280   1.387   1_556  A
C279        C480   1.466       .  S
C280        H284   1.084       .  S
C281        C282   1.398       .  A
C281        C466   1.471       .  S
C282        H285   1.084       .  S
C286        C291   1.406       .  A
C286        C413   1.484       .  S
C287        C288   1.396       .  A
C287        H292   1.084       .  S
C288        C289   1.401       .  A
C288        C438   1.481       .  S
C289        H293   1.084       .  S
C290        C291   1.400       .  A
C290        C424   1.478       .  S
C291        H294   1.084       .  S
N295        C300   1.353       .  A
N295        C299   1.353       .  A
N295        H327   1.038   1_565  S
N296        C837   1.346       .  A
N296        C838   1.347       .  A
N297        C302   1.350       .  A
N297        C301   1.351       .  A
N297        H328   1.038       .  S
N298        C305   1.350       .  A
N298        C306   1.350       .  A
C299        C307   1.386       .  A
C299        C849   1.416       .  A
C300        C316   1.415       .  A
C300        C308   1.388       .  A
C301        C309   1.388       .  A
C301        C318   1.412       .  A
C302        C317   1.408       .  A
C302        C310   1.385       .  A
C303        C315   1.409   1_545  A
C303        C311   1.386       .  A
C303        N830   1.348       .  A
C304        C852   1.409       .  A
C304        C312   1.386       .  A
C304        N830   1.349       .  A
C305        C313   1.387       .  A
C305        C316   1.412   1_545  A
C306        C314   1.386       .  A
C306        C317   1.410       .  A
C307        C308   1.371       .  A
C307        H853   1.082       .  S
C308        H320   1.080       .  S
C309        C310   1.375       .  A
C309        H321   1.082       .  S
C310        H322   1.082       .  S
C311        C312   1.374       .  A
C311        H323   1.082       .  S
C312        H324   1.082       .  S
C313        C314   1.368       .  A
C313        H325   1.081   1_545  S
C314        H326   1.082       .  S
C315        C833   1.418   1_455  A
C315        C455   1.485       .  S
C316        C497   1.485       .  S
C317        C410   1.483       .  S
C318        C838   1.406       .  A
C318        C930   1.478       .  S
H319        C841   1.082       .  S
C329        C334   1.404       .  A
C329        C399   1.483       .  S
C330        C331   1.406       .  A
C330        H335   1.082       .  S
C331        C332   1.410   1_556  A
C331        C385   1.490       .  S
C332        H336   1.083       .  S
C333        C334   1.395       .  A
C333        C371   1.471       .  S
C334        H337   1.084       .  S
O338        C346   1.273       .  A
O338       Co358   2.034       .  S
O339        C347   1.290       .  A
O339       Co359   2.097       .  S
O340        C348   1.250       .  A
O340       Co360   1.967       .  S
O341        C349   1.274       .  A
O341       Co361   1.989       .  S
O342        C348   1.258       .  A
O342       Co359   1.984       .  S
O343        C349   1.274       .  A
O343       Co358   2.002       .  S
O344        C347   1.264       .  A
O344       Co361   1.896       .  S
O345        C346   1.254       .  A
O345       Co360   1.929       .  S
C346        C483   1.469       .  S
C347        C368   1.465       .  S
C348        C469   1.456       .  S
C349        C382   1.485       .  S
O350        C363   1.259       .  A
O350       Co358   1.975       .  S
O351        C364   1.268       .  A
O351       Co359   1.970       .  S
O352        C365   1.275       .  A
O352       Co360   2.029       .  S
O353        C366   1.301       .  A
O353       Co361   2.125       .  S
O354        C366   1.262       .  A
O354       Co359   1.870       .  S
O355        C365   1.257       .  A
O355       Co358   1.953       .  S
O356        C363   1.261       .  A
O356       Co361   1.994       .  S
O357        C364   1.276       .  A
O357       Co360   2.024       .  S
Co358       O362   2.023       .  S
Co359       O362   1.980       .  S
Co360       O362   2.033       .  S
Co361       O362   2.014       .  S
C363        C441   1.482       .  S
C364        C508   1.493       .  S
C365        C525   1.489       .  S
C366        C427   1.479       .  S
C367        C368   1.399       .  A
C367        C372   1.390       .  A
C367        H374   1.085       .  S
C368        C369   1.417       .  A
C369        C370   1.405       .  A
C369        N376   1.438       .  S
C370        C371   1.401       .  A
C370        H375   1.083       .  S
C371        C372   1.412       .  A
C372        N373   1.434       .  S
N373        H377   1.045       .  S
N376        H379   1.044       .  S
N376        H380   1.045       .  S
C381        C382   1.406       .  A
C381        C386   1.409       .  A
C381        H388   1.084       .  S
C382        C383   1.415       .  A
C383        C384   1.393       .  A
C383        N390   1.434       .  S
C384        C385   1.402       .  A
C384        H389   1.083       .  S
C385        C386   1.414       .  A
C386        N387   1.432       .  S
N387        H391   1.046       .  S
N387        H392   1.046       .  S
N390        H393   1.046       .  S
N390        H394   1.046       .  S
C395        C663   1.401       .  A
C395        C400   1.402       .  A
C395        H402   1.084       .  S
C396        C662   1.402       .  A
C396        C397   1.409       .  A
C396        C852   1.479       .  S
C397        C398   1.393       .  A
C397        N404   1.433       .  S
C398        C399   1.408       .  A
C398        H403   1.083       .  S
C399        C667   1.411       .  A
C400        C666   1.412       .  A
C400        N401   1.432       .  S
N401        H405   1.045       .  S
N401        H406   1.046       .  S
N404        H407   1.046       .  S
N404        H408   1.044       .  S
C409        C414   1.399       .  A
C409        H416   1.084       .  S
C410        C411   1.415       .  A
C411        C412   1.400       .  A
C411        N418   1.438       .  S
C412        C413   1.406       .  A
C412        H417   1.084       .  S
C414        N415   1.439       .  S
N415        H419   1.045       .  S
N415        H420   1.046       .  S
N418        H421   1.044       .  S
N418        H422   1.045       .  S
C423        C424   1.398       .  A
C423        C428   1.395       .  A
C423        H430   1.084       .  S
C424        C425   1.413       .  A
C425        C426   1.411       .  A
C425        N432   1.437       .  S
C426        C427   1.405       .  A
C426        H431   1.084       .  S
C427        C428   1.413       .  A
C428        N429   1.433       .  S
N429        H433   1.046       .  S
N429        H434   1.045       .  S
N432        H435   1.046       .  S
N432        H436   1.046       .  S
C437        C438   1.406       .  A
C437        C442   1.405       .  A
C437        H444   1.084       .  S
C438        C439   1.405       .  A
C439        C440   1.401       .  A
C439        N446   1.432       .  S
C440        C441   1.408       .  A
C440        H445   1.084       .  S
C441        C442   1.408       .  A
C442        N443   1.432       .  S
N443        H447   1.046       .  S
N443        H448   1.046       .  S
N446        H449   1.045       .  S
N446        H450   1.046       .  S
C451        C452   1.404       .  A
C451        C456   1.402       .  A
C451        H458   1.084       .  S
C452        C453   1.409       .  A
C453        C454   1.401       .  A
C453        N460   1.432       .  S
C454        C455   1.403       .  A
C454        H459   1.084       .  S
C455        C456   1.410       .  A
C465        C466   1.403       .  A
C465        C470   1.396       .  A
C465        H472   1.084       .  S
C466        C467   1.410       .  A
C467        C468   1.393       .  A
C467        N474   1.434       .  S
C468        C469   1.397       .  A
C468        H473   1.083       .  S
C469        C470   1.411       .  A
C470        N471   1.433       .  S
N471        H475   1.045       .  S
N471        H476   1.045       .  S
N474        H478   1.045       .  S
C479        C480   1.407       .  A
C479        C484   1.402       .  A
C479        H486   1.084       .  S
C480        C481   1.412       .  A
C481        C482   1.392       .  A
C481        N488   1.440       .  S
C482        C483   1.406       .  A
C482        H487   1.085       .  S
C483        C484   1.408       .  A
C484        N485   1.437       .  S
N485        H489   1.046       .  S
N485        H490   1.044       .  S
N488        H491   1.041       .  S
N488        H492   1.046       .  S
C493        C494   1.409       .  A
C493        C498   1.398       .  A
C493        H500   1.083       .  S
C495        C496   1.396       .  A
C495        N502   1.434       .  S
C496        H501   1.084       .  S
C497        C498   1.406       .  A
C498        N499   1.433       .  S
C507        C508   1.408       .  A
C507        C512   1.402       .  A
C507        H514   1.084       .  S
C508        C509   1.425       .  A
C509        C510   1.400       .  A
C509        N516   1.432       .  S
C510        C511   1.399       .  A
C510        H515   1.084       .  S
C511        C512   1.411       .  A
C512        N513   1.432       .  S
N513        H517   1.046       .  S
N513        H518   1.045       .  S
N516        H519   1.045       .  S
N516        H520   1.045       .  S
C521        C522   1.397       .  A
C521        C526   1.403       .  A
C521        H528   1.084       .  S
C522        C523   1.414       .  A
C523        C524   1.399       .  A
C523        N530   1.433       .  S
C524        C525   1.406       .  A
C524        H529   1.084       .  S
C525        C526   1.420       .  A
C526        N527   1.433       .  S
N527        H531   1.046       .  S
N527        H532   1.045       .  S
N530        H533   1.044       .  S
N530        H534   1.046       .  S
C535        C803   1.406   1_554  A
C535        C540   1.402       .  A
C535        C761   1.485       .  S
C536        C802   1.407       .  A
C536        C537   1.401       .  A
C536        H541   1.083       .  S
C537        C538   1.406       .  A
C537        C789   1.481       .  S
C538        C806   1.405       .  A
C538        H542   1.084       .  S
C539        C805   1.404   1_554  A
C539        C540   1.396       .  A
C539        C778   1.474       .  S
C540        H543   1.081       .  S
C544        C812   1.407       .  A
C544        C549   1.409   1_556  A
C544        C719   1.479       .  S
C545        C811   1.406       .  A
C545        C546   1.400       .  A
C545        H550   1.083       .  S
C546        C547   1.388       .  A
C546        C747   1.467       .  S
C547        C815   1.395       .  A
C547        H551   1.085       .  S
C548        C814   1.395       .  A
C548        C549   1.399       .  A
C548        C733   1.471       .  S
C549        H552   1.084       .  S
C553        C821   1.407   1_554  A
C553        C558   1.407       .  A
C553        C680   1.488       .  S
C554        C820   1.409       .  A
C554        C555   1.400       .  A
C554        H559   1.083       .  S
C555        C556   1.403       .  A
C555        C705   1.485       .  S
C556        C824   1.403       .  A
C556        H560   1.084       .  S
C557        C823   1.402   1_554  A
C557        C558   1.403       .  A
C557        C691   1.475       .  S
C558        H561   1.084       .  S
N562        C567   1.352   1_556  A
N562        C566   1.353       .  A
N562        H594   1.039   1_565  S
N564        C569   1.351       .  A
N564        C568   1.351       .  A
N564        H595   1.040   1_554  S
N565        C572   1.351       .  A
N565        C573   1.352       .  A
C566        C574   1.386   1_556  A
C567        C583   1.417       .  A
C567        C575   1.390       .  A
C568        C576   1.388       .  A
C568        C585   1.414   1_654  A
C569        C584   1.412       .  A
C569        C577   1.386       .  A
C570        C582   1.405   1_545  A
C570        C578   1.385       .  A
C571        C579   1.387       .  A
C572        C580   1.387       .  A
C572        C583   1.416   1_545  A
C573        C581   1.385       .  A
C573        C584   1.414       .  A
C574        C575   1.367       .  A
C575        H587   1.079       .  S
C576        C577   1.374       .  A
C576        H588   1.082       .  S
C577        H589   1.082       .  S
C578        C579   1.374       .  A
C578        H590   1.082       .  S
C579        H591   1.082       .  S
C580        C581   1.370       .  A
C580        H592   1.081   1_545  S
C581        H593   1.082       .  S
C582        C722   1.481       .  S
C583        C764   1.486       .  S
C584        C677   1.489       .  S
C596        C864   1.404       .  A
C596        C601   1.405   1_556  A
C596        C666   1.484       .  S
C597        C863   1.403       .  A
C597        C598   1.406       .  A
C597        H602   1.083       .  S
C598        C599   1.408       .  A
C598        C652   1.487       .  S
C599        C867   1.399       .  A
C599        H603   1.084       .  S
C600        C866   1.398       .  A
C600        C601   1.396       .  A
C600        C638   1.474       .  S
C601        H604   1.084       .  S
O605        C613   1.275       .  A
O605       Co625   2.037       .  S
O606        C614   1.292       .  A
O606       Co626   2.106       .  S
O607        C615   1.252       .  A
O607       Co627   1.969       .  S
O608        C616   1.275       .  A
O608       Co628   1.987       .  S
O609        C615   1.260       .  A
O609       Co626   1.985       .  S
O610        C616   1.274       .  A
O610       Co625   2.000       .  S
O611        C614   1.265       .  A
O611       Co628   1.894       .  S
O612        C613   1.254       .  A
O612       Co627   1.932       .  S
C613        C750   1.469       .  S
C614        C635   1.471       .  S
C615        C736   1.458       .  S
C616        C649   1.484       .  S
O617        C630   1.260       .  A
O617       Co625   1.977       .  S
O618        C631   1.268       .  A
O618       Co626   1.971       .  S
O619        C632   1.276       .  A
O619       Co627   2.024       .  S
O620        C633   1.301       .  A
O620       Co628   2.126       .  S
O621        C633   1.263       .  A
O621       Co626   1.870       .  S
O622        C632   1.259       .  A
O622       Co625   1.959       .  S
O623        C630   1.262       .  A
O623       Co628   1.997       .  S
O624        C631   1.275       .  A
O624       Co627   2.017       .  S
Co625       O629   2.023       .  S
Co626       O629   1.978       .  S
Co627       O629   2.028       .  S
Co628       O629   2.008       .  S
C630        C708   1.483       .  S
C631        C775   1.485       .  S
C632        C792   1.489       .  S
C633        C694   1.476       .  S
C634        C635   1.401       .  A
C634        C639   1.392       .  A
C634        H641   1.085       .  S
C635        C636   1.418       .  A
C636        C637   1.406       .  A
C636        N643   1.438       .  S
C637        C638   1.402       .  A
C637        H642   1.084       .  S
C638        C639   1.413       .  A
C639        N640   1.434       .  S
N640        H644   1.046       .  S
N640        H912   1.044       .  S
N643        H646   1.044       .  S
N643        H647   1.046       .  S
H645        N907   1.043       .  S
C648        C649   1.405       .  A
C648        C653   1.407       .  A
C648        H655   1.083       .  S
C649        C650   1.416       .  A
C650        C651   1.393       .  A
C650        N657   1.434       .  S
C651        C652   1.401       .  A
C651        H656   1.083       .  S
C652        C653   1.413       .  A
C653        N654   1.432       .  S
N654        H658   1.046       .  S
N654        H659   1.046       .  S
N657        H660   1.046       .  S
N657        H661   1.046       .  S
C662        C667   1.402       .  A
C662        H669   1.084       .  S
C663        C664   1.410   1_556  A
C664        C665   1.393       .  A
C664        N671   1.433       .  S
C665        C666   1.406   1_554  A
C665        H670   1.083       .  S
C667        N668   1.432       .  S
N668        H672   1.045       .  S
N668        H673   1.046       .  S
N671        H674   1.045       .  S
N671        H675   1.044       .  S
C676        C944   1.399       .  A
C676        C681   1.400       .  A
C676        H683   1.084       .  S
C677        C943   1.401   1_554  A
C677        C678   1.417       .  A
C678        C679   1.403       .  A
C678        N685   1.438       .  S
C679        C680   1.406       .  A
C679        H684   1.083       .  S
C680        C948   1.415   1_554  A
C681        C947   1.417       .  A
C681        N682   1.438       .  S
N682        H686   1.046       .  S
N682        H687   1.045       .  S
N685        H688   1.044       .  S
N685        H689   1.045       .  S
C690        C691   1.399       .  A
C690        C695   1.399       .  A
C690        H697   1.084       .  S
C691        C692   1.410       .  A
C692        C693   1.409       .  A
C692        N699   1.437       .  S
C693        C694   1.404       .  A
C693        H698   1.084       .  S
C694        C695   1.414       .  A
C695        N696   1.438       .  S
N696        H700   1.046       .  S
N696        H701   1.044       .  S
N699        H702   1.046       .  S
N699        H703   1.046       .  S
C704        C705   1.406       .  A
C704        C709   1.405       .  A
C704        H711   1.084       .  S
C705        C706   1.407       .  A
C706        C707   1.403       .  A
C706        N713   1.433       .  S
C707        C708   1.408       .  A
C707        H712   1.084       .  S
C708        C709   1.409       .  A
C709        N710   1.432       .  S
N710        H714   1.046       .  S
N710        H715   1.046       .  S
N713        H716   1.045       .  S
N713        H717   1.046       .  S
C718        C719   1.405   1_554  A
C718        C723   1.402       .  A
C718        H725   1.084       .  S
C719        C720   1.410       .  A
C720        C721   1.400       .  A
C720        N727   1.432       .  S
C721        C722   1.401       .  A
C721        H726   1.084       .  S
C722        C723   1.409   1_556  A
C723        N991   1.438       .  S
N724        C990   1.438       .  S
N724        H995   1.045       .  S
N724        H996   1.046       .  S
N727        H997   1.045       .  S
N727        H998   1.046       .  S
H728        N991   1.046       .  S
H729        N991   1.046       .  S
H730        N994   1.045       .  S
H731        N994   1.046       .  S
C732        C733   1.403       .  A
C732        C737   1.397       .  A
C732        H739   1.084       .  S
C733        C734   1.410       .  A
C734        C735   1.392       .  A
C734        N741   1.434       .  S
C735        C736   1.397       .  A
C735        H740   1.083       .  S
C736        C737   1.412       .  A
C737        N738   1.432       .  S
N738        H742   1.045       .  S
N738        H743   1.045       .  S
N741       H1011   1.046       .  S
N741        H745   1.045       .  S
H744       N1008   1.046       .  S
C746        C747   1.405       .  A
C746        C751   1.403       .  A
C746        H753   1.084       .  S
C747        C748   1.408       .  A
C748        C749   1.389       .  A
C748        N755   1.433       .  S
C749        C750   1.406       .  A
C749        H754   1.085       .  S
C750        C751   1.409       .  A
C751        N752   1.436       .  S
N752        H756   1.046       .  S
N752        H757   1.043       .  S
N755        H758   1.044       .  S
N755        H759   1.045       .  S
C760        C761   1.408   1_556  A
C760        C765   1.398       .  A
C760        H767   1.083       .  S
C761       C1029   1.419       .  A
C762       C1028   1.422       .  A
C762        C763   1.397       .  A
C762        N769   1.434       .  S
C763       C1031   1.400       .  A
C763        H768   1.084       .  S
C764       C1030   1.401       .  A
C764        C765   1.406   1_554  A
C765        N766   1.433       .  S
N766       H1037   1.045       .  S
N766       H1038   1.046       .  S
N769       H1039   1.046       .  S
N769       H1040   1.041       .  S
H770       N1033   1.046       .  S
H771       N1033   1.045       .  S
H772       N1036   1.046       .  S
H773       N1036   1.040       .  S
C774        C775   1.406       .  A
C774        C779   1.400       .  A
C774        H781   1.084       .  S
C775        C776   1.423       .  A
C776        C777   1.398       .  A
C776        N783   1.433       .  S
C777        C778   1.398       .  A
C777        H782   1.084       .  S
C778        C779   1.410       .  A
C779        N780   1.432       .  S
N780        H784   1.046       .  S
N780        H785   1.045       .  S
N783        H786   1.045       .  S
N783        H787   1.045       .  S
C788        C789   1.401       .  A
C788        C793   1.408       .  A
C788        H795   1.084       .  S
C789        C790   1.413       .  A
C790        C791   1.396       .  A
C790        N797   1.433       .  S
C791        C792   1.404       .  A
C791        H796   1.084       .  S
C792        C793   1.418       .  A
C793        N794   1.433       .  S
N794        H798   1.046       .  S
N794        H799   1.046       .  S
N797        H800   1.044       .  S
N797        H801   1.046       .  S
C802        C807   1.403       .  A
C802       C1028   1.490       .  S
C803        C804   1.400       .  A
C803        H808   1.083       .  S
C804        C805   1.406       .  A
C804       C1056   1.481       .  S
C805        H809   1.084       .  S
C806        C807   1.399       .  A
C806       C1045   1.479       .  S
C807        H810   1.079       .  S
C811        C816   1.407       .  A
C811        C986   1.473       .  S
C812        C813   1.401       .  A
C812        H817   1.083       .  S
C813        C814   1.386   1_556  A
C813       C1014   1.465       .  S
C814        H818   1.084       .  S
C815        C816   1.399       .  A
C815       C1000   1.471       .  S
C816        H819   1.084       .  S
C820        C825   1.406       .  A
C820        C947   1.489       .  S
C821        C822   1.398       .  A
C821        H826   1.083       .  S
C822        C823   1.400       .  A
C822        C972   1.481       .  S
C823        H827   1.084       .  S
C824        C825   1.401       .  A
C824        C958   1.477       .  S
C825        H828   1.083       .  S
N829        C834   1.355       .  A
N829        C833   1.354       .  A
N829        H861   1.037   1_565  S
N831        C836   1.351       .  A
N831        C835   1.351       .  A
N831        H862   1.036       .  S
N832        C839   1.352       .  A
N832        C840   1.352       .  A
C833        C841   1.387       .  A
C834        C850   1.419       .  A
C834        C842   1.388       .  A
C835        C843   1.389       .  A
C835        C852   1.413   1_655  A
C836        C851   1.409       .  A
C836        C844   1.385       .  A
C837        C849   1.406   1_545  A
C837        C845   1.386       .  A
C838        C846   1.386       .  A
C839        C847   1.387       .  A
C839        C850   1.415   1_545  A
C840        C848   1.385       .  A
C840        C851   1.412       .  A
C841        C842   1.370       .  A
C842        H854   1.080       .  S
C843        C844   1.372       .  A
C843        H855   1.082       .  S
C844        H856   1.083       .  S
C845        C846   1.375       .  A
C845        H857   1.082       .  S
C846        H858   1.082       .  S
C847        C848   1.368       .  A
C847        H859   1.081   1_545  S
C848        H860   1.082       .  S
C849        C989   1.484       .  S
C850       C1031   1.490       .  S
C851        C944   1.483       .  S
C863        C868   1.401       .  A
C863        C933   1.478       .  S
C864        C865   1.405       .  A
C864        H869   1.083       .  S
C865        C866   1.406   1_556  A
C865        C919   1.486       .  S
C866        H870   1.084       .  S
C867        C868   1.394       .  A
C867        C905   1.472       .  S
C868        H871   1.084       .  S
O872        C880   1.273       .  A
O872       Co892   2.036       .  S
O873        C881   1.290       .  A
O873       Co893   2.097       .  S
O874        C882   1.251       .  A
O874       Co894   1.969       .  S
O875        C883   1.274       .  A
O875       Co895   1.985       .  S
O876        C882   1.258       .  A
O876       Co893   1.983       .  S
O877        C883   1.274       .  A
O877       Co892   2.001       .  S
O878        C881   1.264       .  A
O878       Co895   1.894       .  S
O879        C880   1.254       .  A
O879       Co894   1.935       .  S
C880       C1017   1.470       .  S
C881        C902   1.467       .  S
C882       C1003   1.457       .  S
C883        C916   1.484       .  S
O884        C897   1.260       .  A
O884       Co892   1.976       .  S
O885        C898   1.267       .  A
O885       Co893   1.967       .  S
O886        C899   1.276       .  A
O886       Co894   2.030       .  S
O887        C900   1.303       .  A
O887       Co895   2.130       .  S
O888        C900   1.260       .  A
O888       Co893   1.868       .  S
O889        C899   1.258       .  A
O889       Co892   1.955       .  S
O890        C897   1.260       .  A
O890       Co895   1.992       .  S
O891        C898   1.277       .  A
O891       Co894   2.026       .  S
Co892       O896   2.029       .  S
Co893       O896   1.981       .  S
Co894       O896   2.034       .  S
Co895       O896   2.014       .  S
C897        C975   1.484       .  S
C898       C1042   1.491       .  S
C899       C1059   1.490       .  S
C900        C961   1.480       .  S
C901        C902   1.399       .  A
C901        C906   1.390       .  A
C901        H908   1.085       .  S
C902        C903   1.417       .  A
C903        C904   1.403       .  A
C903        N910   1.438       .  S
C904        C905   1.401       .  A
C904        H909   1.083       .  S
C905        C906   1.414       .  A
C906        N907   1.434       .  S
N907        H911   1.046       .  S
N910        H913   1.044       .  S
N910        H914   1.045       .  S
C915        C916   1.406       .  A
C915        C920   1.406       .  A
C915        H922   1.084       .  S
C916        C917   1.416       .  A
C917        C918   1.394       .  A
C917        N924   1.434       .  S
C918        C919   1.402       .  A
C918        H923   1.083       .  S
C919        C920   1.412       .  A
C920        N921   1.432       .  S
N921        H925   1.046       .  S
N921        H926   1.046       .  S
N924        H927   1.046       .  S
N924        H928   1.046       .  S
C929        C934   1.400       .  A
C929        H936   1.084   1_455  S
C930        C931   1.411       .  A
C931        C932   1.394       .  A
C931        N938   1.433       .  S
C932        C933   1.406       .  A
C932        H937   1.083       .  S
C934        N935   1.432       .  S
N935        H939   1.045   1_455  S
N935        H940   1.046       .  S
N938        H941   1.045       .  S
N938        H942   1.044       .  S
C943        C948   1.400       .  A
C943        H950   1.084       .  S
C944        C945   1.410       .  A
C945        C946   1.399       .  A
C945        N952   1.433       .  S
C946        C947   1.408       .  A
C946        H951   1.083       .  S
C948        N949   1.439       .  S
N949        H953   1.046       .  S
N949        H954   1.045       .  S
N952        H955   1.046       .  S
N952        H956   1.043       .  S
C957        C958   1.397       .  A
C957        C962   1.395       .  A
C957        H964   1.084       .  S
C958        C959   1.412       .  A
C959        C960   1.412       .  A
C959        N966   1.437       .  S
C960        C961   1.405       .  A
C960        H965   1.084       .  S
C961        C962   1.415       .  A
C962        N963   1.433       .  S
N963        H967   1.046       .  S
N963        H968   1.045       .  S
N966        H969   1.046       .  S
N966        H970   1.046       .  S
C971        C972   1.406       .  A
C971        C976   1.404       .  A
C971        H978   1.084       .  S
C972        C973   1.406       .  A
C973        C974   1.402       .  A
C973        N980   1.433       .  S
C974        C975   1.410       .  A
C974        H979   1.084       .  S
C975        C976   1.409       .  A
C976        N977   1.432       .  S
N977        H981   1.046       .  S
N977        H982   1.046       .  S
N980        H983   1.045       .  S
N980        H984   1.046       .  S
C985        C986   1.403       .  A
C985        C990   1.403       .  A
C985        H992   1.084       .  S
C986        C987   1.406       .  A
C987        C988   1.398       .  A
C987        N994   1.432       .  S
C988        C989   1.403       .  A
C988        H993   1.084       .  S
C989        C990   1.412       .  A
C999       C1000   1.402       .  A
C999       C1004   1.397       .  A
C999       H1006   1.084       .  S
C1000      C1001   1.410       .  A
C1001      C1002   1.392       .  A
C1001      N1008   1.434       .  S
C1002      C1003   1.397       .  A
C1002      H1007   1.083       .  S
C1003      C1004   1.412       .  A
C1004      N1005   1.433       .  S
N1005      H1009   1.045       .  S
N1005      H1010   1.045       .  S
N1008      H1012   1.045       .  S
C1013      C1014   1.405       .  A
C1013      C1018   1.405       .  A
C1013      H1020   1.084       .  S
C1014      C1015   1.407       .  A
C1015      C1016   1.389       .  A
C1015      N1022   1.433       .  S
C1016      C1017   1.405       .  A
C1016      H1021   1.084       .  S
C1017      C1018   1.411       .  A
C1018      N1019   1.436       .  S
N1019      H1023   1.046       .  S
N1019      H1024   1.043       .  S
N1022      H1025   1.044       .  S
N1022      H1026   1.046       .  S
C1027      C1028   1.408       .  A
C1027      C1032   1.400       .  A
C1027      H1034   1.083       .  S
C1029      C1030   1.396       .  A
C1029      N1036   1.434       .  S
C1030      H1035   1.084       .  S
C1031      C1032   1.407       .  A
C1032      N1033   1.433       .  S
C1041      C1042   1.407       .  A
C1041      C1046   1.401       .  A
C1041      H1048   1.084       .  S
C1042      C1043   1.425       .  A
C1043      C1044   1.399       .  A
C1043      N1050   1.432       .  S
C1044      C1045   1.399       .  A
C1044      H1049   1.084       .  S
C1045      C1046   1.410       .  A
C1046      N1047   1.432       .  S
N1047      H1051   1.046       .  S
N1047      H1052   1.045       .  S
N1050      H1053   1.045       .  S
N1050      H1054   1.044       .  S
C1055      C1056   1.399       .  A
C1055      C1060   1.405       .  A
C1055      H1062   1.084       .  S
C1056      C1057   1.415       .  A
C1057      C1058   1.399       .  A
C1057      N1064   1.433       .  S
C1058      C1059   1.405       .  A
C1058      H1063   1.084       .  S
C1059      C1060   1.419       .  A
C1060      N1061   1.433       .  S
N1061      H1065   1.046       .  S
N1061      H1066   1.045       .  S
N1064      H1067   1.044       .  S
N1064      H1068   1.046       .  S
