geometry optimzed in LAMMPS
_audit_creation_date              2020-11-30 
_audit_creation_method            'lammps2cif' 
_symmetry_space_group_name_H-M    'P1' 
_symmetry_Int_Tables_number       1 
_symmetry_cell_setting            triclinic 
loop_ 
_symmetry_equiv_pos_as_xyz 
  x,y,z 
_cell_length_a                    33.87258353 
_cell_length_b                    33.87138998894995 
_cell_length_c                    62.916238757324976 
_cell_angle_alpha                 89.94746850534455 
_cell_angle_beta                  90.02212180104272 
_cell_angle_gamma                 120.04415924707467 
loop_ 
_atom_site_label 
_atom_site_type_symbol 
_atom_site_fract_x 
_atom_site_fract_y 
_atom_site_fract_z 
_atom_site_charge 
C1          C  0.20774813  0.33356444  0.33145737     0.02100
C2          C  0.17655763  0.31771945  0.31428983     0.02100
C3          C  0.13451993  0.31684832  0.31627638     0.02100
C4          C  0.12401741  0.33227666  0.33522987     0.02100
C5          C  0.15567413  0.34894276  0.35210748     0.02100
C6          C  0.19737661  0.34935347  0.35025102     0.02100
C7          C  0.28638867  0.11042078  0.20603162    -0.11100
C8          C  0.27267451  0.14020935  0.21401385    -0.04900
C9          C  0.28628621  0.18246437  0.20464069    -0.11100
C10         C  0.31489106  0.19585441  0.18650346     0.09900
C11         C  0.32819328  0.16549506  0.17776225    -0.02900
C12         C  0.31379464  0.12255585  0.18751667     0.09700
C13         C  0.32646062  0.09269122  0.17828834    -0.12900
C14         C  0.35350438  0.10495908  0.16007409    -0.12900
C15         C  0.36849422  0.14734256  0.15023195     0.09700
C16         C  0.35581276  0.17801959  0.15918211    -0.02900
C17         C  0.33014408  0.23839161  0.17676460    -0.13000
C18         C  0.35769948  0.25091903  0.15870466    -0.13000
C19         C  0.37044201  0.22108474  0.14951275     0.09900
C20         C  0.39786831  0.23324177  0.13101741    -0.11100
C21         C  0.41064032  0.20301162  0.12271254    -0.04900
C22         C  0.39622093  0.16026406  0.13178445    -0.11100
H23         H  0.31522353  0.05927389  0.18495709     0.07200
H24         H  0.36266772  0.08089587  0.15378293     0.07200
H25         H  0.32083817  0.26236357  0.18304774     0.07300
H26         H  0.36900329  0.28434151  0.15200854     0.07300
H27         H  0.25188344  0.13085279  0.22828019     0.03800
H28         H  0.43089468  0.21227874  0.10827589     0.03800
C29         C  0.81471487  0.11014063  0.20664364    -0.11100
C30         C  0.85483224  0.14062080  0.21714418    -0.04900
C31         C  0.88506339  0.18349441  0.20873588    -0.11100
C32         C  0.87523198  0.19679003  0.18907086     0.09900
C33         C  0.83470770  0.16605371  0.17807284    -0.02900
C34         C  0.80438940  0.12240438  0.18682527     0.09700
C35         C  0.76441424  0.09264649  0.17572727    -0.12900
C36         C  0.75441401  0.10530654  0.15627868    -0.12900
C37         C  0.78365307  0.14847768  0.14744122     0.09700
C38         C  0.82416128  0.17923791  0.15844064    -0.02900
C39         C  0.90413571  0.24020735  0.18039000    -0.09700
C40         C  0.89380502  0.25312241  0.16109169    -0.13000
C41         C  0.85419601  0.22309713  0.14981200     0.09900
C42         C  0.84327247  0.23583273  0.13024992    -0.11100
C43         C  0.80353769  0.20497494  0.11956365    -0.04900
C44         C  0.77395492  0.16163333  0.12771255    -0.11100
H45         H  0.74059583  0.05922671  0.18197817     0.07200
H46         H  0.72341843  0.08094117  0.14825748     0.07200
H47         H  0.93487636  0.26474468  0.18852694     0.07300
H48         H  0.91704406  0.28699543  0.15513027     0.07300
H49         H  0.86255639  0.13083366  0.23234566     0.03800
H50         H  0.79576987  0.21467131  0.10435122     0.03800
C51         C  0.12784441  0.79134260  0.33019744     0.02100
C52         C  0.14432483  0.82363025  0.31341244     0.02100
C53         C  0.18560180  0.86532522  0.31593154     0.02100
C54         C  0.21067747  0.87475313  0.33500168     0.02100
C55         C  0.19469536  0.84260397  0.35167437     0.02100
C56         C  0.15330414  0.80092107  0.34927147     0.02100
C57         C  0.67016127  0.79501863  0.33457508     0.02100
C58         C  0.68707409  0.82251537  0.31615908     0.02100
C59         C  0.68712841  0.86412209  0.31493712     0.02100
C60         C  0.66940941  0.87774642  0.33194572     0.02100
C61         C  0.65250761  0.85035760  0.35038877     0.02100
C62         C  0.65310281  0.80896940  0.35182738     0.02100
C63         C  0.82783260  0.72292310  0.20405122    -0.11100
C64         C  0.87019664  0.73534001  0.21307575    -0.04900
C65         C  0.90035169  0.72378583  0.20366471    -0.11100
C66         C  0.88798131  0.69877996  0.18445912     0.09900
C67         C  0.84522060  0.68622557  0.17489282    -0.02900
C68         C  0.81491686  0.69821006  0.18473364     0.09700
C69         C  0.77329718  0.68630098  0.17471081    -0.12900
C70         C  0.76162048  0.66322732  0.15531755    -0.12900
C71         C  0.79094866  0.65085504  0.14533600     0.09700
C72         C  0.83312158  0.66234063  0.15525601    -0.02900
C73         C  0.91755047  0.68689973  0.17435044    -0.13000
C74         C  0.90539573  0.66289404  0.15526533    -0.13000
C75         C  0.86355064  0.65054703  0.14542252     0.09900
C76         C  0.85116842  0.62660112  0.12597825    -0.11100
C77         C  0.80997283  0.61605651  0.11631458    -0.04900
C78         C  0.77996484  0.62818506  0.12546178    -0.11100
H79         H  0.74966842  0.69536374  0.18163714     0.07200
H80         H  0.72947314  0.65541337  0.14813693     0.07200
H81         H  0.95049880  0.69623809  0.18107629     0.07300
H82         H  0.92931088  0.65439372  0.14817874     0.07300
H83         H  0.87980850  0.75417836  0.22792170     0.03800
H84         H  0.80117167  0.59816543  0.10121251     0.03800
C85         C  0.54548889  0.00644915  0.99711280     0.02100
C86         C  0.53376516  0.02168485  0.01578100     0.02100
C87         C  0.49151868  0.02064808  0.01700244     0.02100
C88         C  0.46140663  0.00492531  0.99942029     0.02100
C89         C  0.47301168  0.98954640  0.98080770     0.02100
C90         C  0.51496088  0.99005954  0.97974555     0.02100
C91         C  0.54516916  0.54001064  0.99903949     0.02100
C92         C  0.53221387  0.51056763  0.01684676     0.02100
C93         C  0.49027204  0.46917210  0.01673154     0.02100
C94         C  0.46164994  0.45704420  0.99872331     0.02100
C95         C  0.47468674  0.48627878  0.98086468     0.02100
C96         C  0.51661792  0.52767747  0.98097766     0.02100
C97         C  0.99317323  0.45408915  0.00021322     0.02100
C98         C  0.97865761  0.47043770  0.01734587     0.02100
C99         C  0.97977964  0.51255043  0.01569720     0.02100
C100        C  0.99492645  0.53834123  0.99665259     0.02100
C101        C  0.00866584  0.52137548  0.97921836     0.02100
C102        C  0.00808477  0.47943223  0.98117534     0.02100
C103        C  0.33082081  0.20657113  0.66579176     0.02100
C104        C  0.34728211  0.19236539  0.64838347     0.02100
C105        C  0.34832823  0.15119454  0.64982428     0.02100
C106        C  0.33192617  0.12390236  0.66836783     0.02100
C107        C  0.31517143  0.13790454  0.68557549     0.02100
C108        C  0.31474105  0.17923200  0.68431018     0.02100
C109        C  0.22021553  0.36572532  0.87562296    -0.11100
C110        C  0.19129317  0.37942184  0.88457003    -0.04900
C111        C  0.15074961  0.37080325  0.87472282    -0.11100
C112        C  0.13787822  0.34683129  0.85521494     0.09900
C113        C  0.16697364  0.33284837  0.84575586    -0.02900
C114        C  0.20850711  0.34263869  0.85588949     0.09700
C115        C  0.23659644  0.32831622  0.84623761    -0.12900
C116        C  0.22467026  0.30550441  0.82683949    -0.12900
C117        C  0.18379581  0.29541943  0.81659481     0.09700
C118        C  0.15439833  0.30879922  0.82616839    -0.02900
C119        C  0.09715266  0.33689329  0.84480798    -0.13000
C120        C  0.08417562  0.31206216  0.82593182    -0.13000
C121        C  0.11228617  0.29778353  0.81628674     0.09900
C122        C  0.09938323  0.27217851  0.79719010    -0.11100
C123        C  0.12914072  0.25981825  0.78796268    -0.04900
C124        C  0.17103710  0.27148767  0.79717098    -0.11100
H125        H  0.26801497  0.33446604  0.85363672     0.07200
H126        H  0.24747983  0.29516464  0.82007638     0.07200
H127        H  0.07467167  0.34796009  0.85120740     0.07300
H128        H  0.05188498  0.30428238  0.81894840     0.07300
H129        H  0.20060749  0.39728559  0.89967614     0.03800
H130        H  0.11978736  0.24123988  0.77304149     0.03800
C131        C  0.22830947  0.83873825  0.87062068    -0.11100
C132        C  0.19955244  0.79505584  0.87876972    -0.04900
C133        C  0.15764322  0.76525773  0.86930747    -0.11100
C134        C  0.14438404  0.77885185  0.85061682     0.09900
C135        C  0.17348888  0.82286227  0.84191193    -0.02900
C136        C  0.21542899  0.85309446  0.85204723     0.09700
C137        C  0.24346430  0.89660152  0.84325365    -0.12900
C138        C  0.23050696  0.91042733  0.82494683    -0.12900
C139        C  0.18935358  0.88103205  0.81453469     0.09700
C140        C  0.16044376  0.83679705  0.82312947    -0.02900
C141        C  0.10303464  0.74954289  0.84034225    -0.13000
C142        C  0.09010046  0.76326186  0.82201641    -0.13000
C143        C  0.11829326  0.80661239  0.81311013     0.09900
C144        C  0.10514857  0.82108218  0.79468111    -0.11100
C145        C  0.13388579  0.86472181  0.78653856    -0.04900
C146        C  0.17570686  0.89483268  0.79599394    -0.11100
H147        H  0.27578170  0.92042664  0.85046176     0.07200
H148        H  0.25302788  0.94455997  0.81909408     0.07200
H149        H  0.08024017  0.71564369  0.84640498     0.07300
H150        H  0.05754068  0.73957896  0.81498055     0.07300
H151        H  0.20928985  0.78461373  0.89323333     0.03800
H152        H  0.12382001  0.87517962  0.77217602     0.03800
C153        C  0.87851723  0.20590370  0.66764710     0.02100
C154        C  0.86300818  0.17332895  0.68411443     0.02100
C155        C  0.82163426  0.13172038  0.68180829     0.02100
C156        C  0.79571848  0.12235585  0.66289328     0.02100
C157        C  0.81166530  0.15493809  0.64621775     0.02100
C158        C  0.85309723  0.19664678  0.64869031     0.02100
C159        C  0.78900512  0.66297242  0.66851419     0.02100
C160        C  0.82095370  0.68057600  0.68535851     0.02100
C161        C  0.86271507  0.68082481  0.68366358     0.02100
C162        C  0.87248060  0.66343628  0.66518061     0.02100
C163        C  0.84048140  0.64587890  0.64835054     0.02100
C164        C  0.79868896  0.64546280  0.65009286     0.02100
C165        C  0.60564077  0.76701257  0.86921347    -0.11100
C166        C  0.59204126  0.79624944  0.87789587    -0.04900
C167        C  0.60355533  0.83810457  0.86850594    -0.11100
C168        C  0.62932779  0.85107076  0.84942755     0.09900
C169        C  0.64346775  0.82162703  0.84036962    -0.02900
C170        C  0.63157499  0.77944141  0.85029307     0.09700
C171        C  0.64548184  0.75067204  0.84094436    -0.12900
C172        C  0.67143429  0.76338833  0.82238818    -0.12900
C173        C  0.68408726  0.80515028  0.81239992     0.09700
C174        C  0.66974796  0.83447052  0.82139194    -0.02900
C175        C  0.64075579  0.89214105  0.83898648    -0.13000
C176        C  0.66692405  0.90494773  0.82048860    -0.13000
C177        C  0.68195082  0.87677385  0.81152225     0.09900
C178        C  0.70941392  0.88990167  0.79307182    -0.11100
C179        C  0.72382068  0.86107735  0.78466632    -0.04900
C180        C  0.71135869  0.81891046  0.79383352    -0.11100
H181        H  0.63642145  0.71799620  0.84792578     0.07200
H182        H  0.68177202  0.74028678  0.81599707     0.07200
H183        H  0.62952034  0.91479751  0.84499653     0.07300
H184        H  0.67543479  0.93729974  0.81329509     0.07300
H185        H  0.57310709  0.78669814  0.89272273     0.03800
H186        H  0.74452848  0.87134582  0.77035950     0.03800
C187        C  0.05392059  0.49001898  0.46239834    -0.11100
C188        C  0.06293024  0.53030622  0.45215228    -0.04900
C189        C  0.04786700  0.55878957  0.46025426    -0.11100
C190        C  0.02242575  0.54702934  0.47927420     0.09900
C191        C  0.01282797  0.50633100  0.49003602    -0.02900
C192        C  0.02847029  0.47755776  0.48157902     0.09700
C193        C  0.01897639  0.43783258  0.49274355    -0.12900
C194        C  0.99391886  0.42599725  0.51156916    -0.12900
C195        C  0.97837252  0.45402715  0.52024137     0.09700
C196        C  0.98793738  0.49466070  0.50940822    -0.02900
C197        C  0.00702407  0.57517104  0.48795505    -0.13000
C198        C  0.98235776  0.56355260  0.50687971    -0.13000
C199        C  0.97256011  0.52359246  0.51788847     0.09900
C200        C  0.94728939  0.51129989  0.53704687    -0.11100
C201        C  0.93784430  0.47099382  0.54730836    -0.04900
C202        C  0.95291125  0.44234997  0.53932125    -0.11100
H203        H  0.03093556  0.41552293  0.48707101     0.07200
H204        H  0.98688852  0.39457351  0.51927772     0.07200
H205        H  0.01400082  0.60653866  0.48018191     0.07300
H206        H  0.97094260  0.58615105  0.51281375     0.07300
H207        H  0.08193876  0.53968468  0.43734230     0.03800
H208        H  0.91882707  0.46201526  0.56211447     0.03800
C209        C  0.43282081  0.49455630  0.46392103    -0.11100
C210        C  0.46179957  0.53792955  0.45559356    -0.04900
C211        C  0.50491196  0.56678627  0.46418651    -0.11100
C212        C  0.51927733  0.55220680  0.48227640     0.09900
C213        C  0.48949636  0.50870216  0.49140527    -0.02900
C214        C  0.44615928  0.47972542  0.48214668     0.09700
C215        C  0.41718845  0.43694490  0.49142367    -0.12900
C216        C  0.43058304  0.42249804  0.50937373    -0.12900
C217        C  0.47334478  0.45038342  0.51878343     0.09700
C218        C  0.50321989  0.49390576  0.50969973    -0.02900
C219        C  0.56222269  0.57989006  0.49158990    -0.13000
C220        C  0.57586605  0.56522540  0.50942699    -0.13000
C221        C  0.54677447  0.52263573  0.51886576     0.09900
C222        C  0.56013824  0.50750730  0.53705525    -0.11100
C223        C  0.53048429  0.46439709  0.54553651    -0.04900
C224        C  0.48744022  0.43580118  0.53689001    -0.11100
H225        H  0.38367602  0.41432194  0.48494025     0.07200
H226        H  0.40715368  0.38911319  0.51577857     0.07200
H227        H  0.58566047  0.61325384  0.48517757     0.07300
H228        H  0.60961698  0.58760285  0.51571137     0.07300
H229        H  0.45149236  0.54853927  0.44135315     0.03800
H230        H  0.54052214  0.45339415  0.55973490     0.03800
C231        C  0.43627159  0.95074176  0.46222460    -0.11100
C232        C  0.46828638  0.94513589  0.45061106    -0.04900
C233        C  0.51269105  0.96123236  0.45797240    -0.11100
C234        C  0.52603747  0.98378301  0.47781716     0.09900
C235        C  0.49418916  0.99023384  0.48982395    -0.02900
C236        C  0.44918741  0.97387687  0.48197393     0.09700
C237        C  0.41824173  0.98027623  0.49426704    -0.12900
C238        C  0.43122164  0.00279310  0.51375723    -0.12900
C239        C  0.47561867  0.01966916  0.52172557     0.09700
C240        C  0.50733488  0.01293419  0.50976922    -0.02900
C241        C  0.57040902  0.00058938  0.48582381    -0.13000
C242        C  0.58309273  0.02232239  0.50550216    -0.13000
C243        C  0.55209182  0.02864058  0.51777423     0.09900
C244        C  0.56468978  0.05084501  0.53773129    -0.11100
C245        C  0.53309524  0.05732444  0.54916571    -0.04900
C246        C  0.48903474  0.04226781  0.54156276    -0.11100
H247        H  0.38354944  0.96763139  0.48897676     0.07200
H248        H  0.40586695  0.00638862  0.52264676     0.07200
H249        H  0.59584889  0.99717667  0.47691562     0.07300
H250        H  0.61759484  0.03447010  0.51097558     0.07300
H251        H  0.45830491  0.92756842  0.43544133     0.03800
H252        H  0.54309648  0.07458180  0.56440699     0.03800
O253        O  0.02285849  0.94328847  0.01567413    -0.88600
C254        C  0.08453978  0.04199442  0.97038137     0.87500
Mg255      Mg  0.95290381  0.89030016  0.01357703     1.58100
O256        O  0.05666028  0.07788907  0.01775611    -0.88300
O257        O  0.06799985  0.99715065  0.03758900    -0.75600
C258        C  0.83741126  0.99504957  0.98976616     0.92500
O259        O  0.00314581  0.93459153  0.96543718    -0.75400
O260        O  0.83600173  0.95710385  0.98721551    -0.82900
Mg261      Mg  0.06371867  0.95394345  0.98780895     1.58000
C262        C  0.99371822  0.15774895  0.01262673     0.92400
O263        O  0.12861270  0.97022872  0.00604006    -0.81200
H264        H  0.06182087  0.08716639  0.04923290    -0.06500
C265        C  0.96490641  0.04414157  0.96906454     0.87400
O266        O  0.93097079  0.93010273  0.03552193    -0.75700
O267        O  0.08111636  0.02404786  0.98788894    -0.88500
O268        O  0.03045301  0.15811484  0.00769089    -0.81300
C269        C  0.16022690  0.16484793  0.99463655     0.92600
C270        C  0.16491321  0.00512012  0.01256452     0.92400
Mg271      Mg  0.93835761  0.04706855  0.01471179     1.58000
O272        O  0.87380915  0.03080101  0.99558243    -0.81200
O273        O  0.99866425  0.06662699  0.03743291    -0.75500
O274        O  0.15905192  0.12817819  0.00038237    -0.81300
O275        O  0.04573428  0.88012532  0.98811155    -0.83000
O276        O  0.84320413  0.87223535  0.00339301    -0.81300
C277        C  0.04035132  0.07808799  0.03529367     0.86800
O278        O  0.92146622  0.97707178  0.01515217    -0.88500
O279        O  0.98005204  0.05759831  0.98711365    -0.88600
O280        O  0.93472594  0.00294249  0.96552772    -0.75600
Mg281      Mg  0.11004024  0.06085731  0.01704634     1.58000
O282        O  0.12399799  0.16675896  0.99185072    -0.83000
H283        H  0.02488835  0.93185651  0.04672335    -0.06700
O284        O  0.94551155  0.92266241  0.98551685    -0.88300
H285        H  0.93960037  0.91349786  0.95404718    -0.06600
H286        H  0.90850722  0.97183121  0.04633348    -0.06700
C287        C  0.96143120  0.92264506  0.96785956     0.86800
C288        C  0.03818033  0.95602102  0.03375279     0.87400
C289        C  0.91930738  0.96000952  0.03278280     0.87500
H290        H  0.97844867  0.06774955  0.95588929    -0.06700
O291        O  0.07319645  0.07212780  0.96767834    -0.75700
Mg292      Mg  0.89229846  0.93943775  0.98633544     1.58000
H293        H  0.09621092  0.03081773  0.95691065    -0.06700
C294        C  0.00789348  0.84316545  0.98995022     0.92400
O295        O  0.87911874  0.83454365  0.01193771    -0.83000
C296        C  0.84258554  0.83584214  0.00919209     0.92500
O297        O  0.16650753  0.04288080  0.01619254    -0.82900
Mg298      Mg  0.05005077  0.11090097  0.98961779     1.58200
O299        O  0.97126237  0.84274275  0.99508253    -0.81300
O300        O  0.95594983  0.12070614  0.01437563    -0.83000
O301        O  0.68959107  0.27962329  0.34684067    -0.88600
C302        C  0.74608069  0.37103775  0.29825962     0.87500
Mg303      Mg  0.61930044  0.22626014  0.34655865     1.58100
O304        O  0.72411832  0.41413500  0.34478746    -0.88300
O305        O  0.73718207  0.33710915  0.36654658    -0.75600
C306        C  0.50253609  0.32900941  0.32152842     0.92500
O307        O  0.66556378  0.26374583  0.29704241    -0.75400
O308        O  0.50063908  0.29084729  0.31873310    -0.82900
Mg309      Mg  0.72822165  0.28610853  0.31851110     1.58000
C310        C  0.66199386  0.49347174  0.33989241     0.92400
O311        O  0.79482550  0.30484661  0.33652352    -0.81200
H312        H  0.73340235  0.42724844  0.37592268    -0.06500
C313        C  0.62707399  0.37478799  0.29841795     0.87400
O314        O  0.59862470  0.26816762  0.36766602    -0.75700
O315        O  0.74543001  0.35604690  0.31624472    -0.88500
O316        O  0.69687891  0.49200275  0.33343777    -0.81300
C317        C  0.82484597  0.49824057  0.31898340     0.92600
C318        C  0.83143536  0.34096486  0.34185040     0.92400
Mg319      Mg  0.60586440  0.38312009  0.34469161     1.58000
O320        O  0.53908475  0.36441091  0.32749214    -0.81200
O321        O  0.66872139  0.40491998  0.36582409    -0.75500
O322        O  0.82528001  0.46211086  0.32429726    -0.81300
O323        O  0.70999555  0.21230509  0.32050913    -0.83000
O324        O  0.50882068  0.20673101  0.33668955    -0.81300
C325        C  0.71011697  0.41644687  0.36260981     0.86800
O326        O  0.58825702  0.31301819  0.34624910    -0.88500
O327        O  0.64396309  0.39011253  0.31601144    -0.88600
O328        O  0.59705483  0.33318340  0.29590725    -0.75600
Mg329      Mg  0.77743036  0.39746166  0.34377548     1.58000
O330        O  0.78787168  0.49896209  0.31689088    -0.83000
H331        H  0.69460517  0.27377387  0.37821498    -0.06700
O332        O  0.60979786  0.25515543  0.31767907    -0.88300
H333        H  0.60109067  0.24138577  0.28658250    -0.06600
H334        H  0.57648568  0.31081710  0.37747312    -0.06700
C335        C  0.62412516  0.25244706  0.29999552     0.86800
C336        C  0.70669883  0.29551903  0.36434692     0.87400
C337        C  0.58675345  0.29768377  0.36423211     0.87500
H338        H  0.63918522  0.39702972  0.28471546    -0.06700
O339        O  0.73436666  0.40076046  0.29500665    -0.75700
Mg340      Mg  0.55669728  0.27233848  0.31826155     1.58000
H341        H  0.75568408  0.35762737  0.28489005    -0.06700
C342        C  0.67212804  0.17588299  0.32348752     0.92400
O343        O  0.54517469  0.17012799  0.34646813    -0.83000
C344        C  0.50847151  0.17098456  0.34337861     0.92500
O345        O  0.83323698  0.37929626  0.34332495    -0.82900
Mg346      Mg  0.71411309  0.44295272  0.31625512     1.58200
O347        O  0.63655814  0.17674521  0.32938971    -0.81300
O348        O  0.62409625  0.45736406  0.34337624    -0.83000
O349        O  0.38880832  0.64345151  0.65525916    -0.88600
C350        C  0.29631567  0.58915184  0.70380115     0.87500
Mg351      Mg  0.44111353  0.71392188  0.65439674     1.58100
O352        O  0.25258239  0.60668497  0.65619794    -0.88300
O353        O  0.33144305  0.59468351  0.63581539    -0.75600
C354        C  0.33460686  0.82812947  0.67568398     0.92500
O355        O  0.40406034  0.67156158  0.70486485    -0.75400
O356        O  0.37277393  0.83014036  0.67849383    -0.82900
Mg357      Mg  0.38246414  0.60751142  0.68469273     1.58000
C358        C  0.17125304  0.66637657  0.65822347     0.92400
O359        O  0.36434162  0.53981532  0.66843075    -0.81200
H360        H  0.23915475  0.59439690  0.62520247    -0.06500
C361        C  0.29049187  0.70591781  0.70076084     0.87400
O362        O  0.39845916  0.73194348  0.63234650    -0.75700
O363        O  0.31191875  0.58930577  0.68603781    -0.88500
O364        O  0.17319806  0.63253960  0.66587676    -0.81300
C365        C  0.16940931  0.50679667  0.68301739     0.92600
C366        C  0.32900078  0.50304485  0.66261189     0.92400
Mg367      Mg  0.28177529  0.72382257  0.65391286     1.58000
O368        O  0.29895879  0.79130004  0.67020168    -0.81200
O369        O  0.26099764  0.65983165  0.63385404    -0.75500
O370        O  0.20589610  0.50704243  0.67770188    -0.81300
O371        O  0.45708990  0.62676016  0.68356807    -0.83000
O372        O  0.45884829  0.82435620  0.66232746    -0.81300
C373        C  0.24984332  0.61887782  0.63801346     0.86800
O374        O  0.35237637  0.74217790  0.65289876    -0.88500
O375        O  0.27486281  0.68794296  0.68337495    -0.88600
O376        O  0.33208141  0.73622537  0.70299696    -0.75600
Mg377      Mg  0.27096234  0.55497149  0.65847355     1.58000
O378        O  0.16792841  0.54345574  0.68467431    -0.83000
H379        H  0.39480795  0.63660422  0.62406772    -0.06700
O380        O  0.41171334  0.72464140  0.68268842    -0.88300
H381        H  0.42617666  0.73701114  0.71360664    -0.06600
H382        H  0.35458425  0.75166761  0.62146572    -0.06700
C383        C  0.41504828  0.71250329  0.70079322     0.86800
C384        C  0.37301178  0.62523449  0.63792498     0.87400
C385        C  0.36805553  0.74286311  0.63510250     0.87500
H386        H  0.26853076  0.69446820  0.71456147    -0.06700
O387        O  0.26576742  0.59998309  0.70638827    -0.75700
Mg388      Mg  0.39286705  0.77608214  0.68059676     1.58000
H389        H  0.30986420  0.58076001  0.71754317    -0.06700
C390        C  0.49288995  0.66448871  0.67937825     0.92400
O391        O  0.49653430  0.78845791  0.65371069    -0.83000
C392        C  0.49516260  0.82501655  0.65631816     0.92500
O393        O  0.29062087  0.50060062  0.65999518    -0.82900
Mg394      Mg  0.22290117  0.61764223  0.68415048     1.58200
O395        O  0.49095341  0.69865015  0.67217510    -0.81300
O396        O  0.20708566  0.70427116  0.65432706    -0.83000
C397        C  0.04589307  0.62559590  0.66555815    -0.11000
C398        C  0.04113235  0.65996660  0.65535565     0.06100
C399        C  0.07891753  0.69431704  0.64427366    -0.09800
C400        C  0.12090100  0.69559917  0.64442488    -0.11500
C401        C  0.12583597  0.66210329  0.65532687    -0.01300
C402        C  0.08749118  0.62642112  0.66537012    -0.10400
C403        C  0.99771879  0.66100266  0.65729725     0.06100
H404        H  0.07636238  0.72071189  0.63575010     0.08000
H405        H  0.14973662  0.72336118  0.63640066     0.11500
H406        H  0.09011237  0.60019827  0.67405012     0.11800
H407        H  0.01810091  0.59897348  0.67457367     0.08100
C408        C  0.95557545  0.62022334  0.65913398    -0.11100
C409        C  0.91531933  0.62121108  0.66241731    -0.10400
C410        C  0.91597067  0.66286614  0.66335561    -0.01300
C411        C  0.95759503  0.70363717  0.66118261    -0.11400
C412        C  0.99812192  0.70277379  0.65836794    -0.09900
H413        H  0.95348499  0.58736824  0.65792595     0.08100
H414        H  0.88340697  0.58937279  0.66391037     0.11800
H415        H  0.95864244  0.73610882  0.66156691     0.11500
H416        H  0.02979172  0.73492407  0.65741031     0.08000
C417        C  0.58562585  0.63616203  0.69162627    -0.11000
C418        C  0.62187007  0.66853870  0.67907207     0.06100
C419        C  0.61618038  0.70169728  0.66825924    -0.09800
C420        C  0.57509085  0.70174204  0.66944633    -0.11500
C421        C  0.53819220  0.66812472  0.68115100    -0.01300
C422        C  0.54407836  0.63571061  0.69250218    -0.10400
C423        C  0.66477412  0.66692214  0.67649288     0.06100
H424        H  0.64282523  0.72667391  0.65813147     0.08000
H425        H  0.57155924  0.72689925  0.66029084     0.11500
H426        H  0.51630360  0.60949152  0.70171657     0.11800
H427        H  0.58909781  0.61074661  0.70056346     0.08100
C428        C  0.66388307  0.62490849  0.67585345    -0.11100
C429        C  0.70407627  0.62350953  0.67288049    -0.10400
C430        C  0.74576511  0.66397848  0.67016742    -0.01300
C431        C  0.74681570  0.70585265  0.67051051    -0.11400
C432        C  0.70688991  0.70738728  0.67388249    -0.09900
H433        H  0.63208820  0.59302202  0.67740972     0.08100
H434        H  0.70277468  0.59091102  0.67291882     0.11800
H435        H  0.77881427  0.73744226  0.66857260     0.11500
H436        H  0.70919739  0.74039263  0.67466436     0.08000
C437        C  0.81488753  0.76160426  0.72500798    -0.11000
C438        C  0.77948188  0.73137913  0.73851705     0.06100
C439        C  0.76003470  0.68420092  0.73526686    -0.09800
C440        C  0.77526032  0.66766529  0.71866562    -0.11500
C441        C  0.80973407  0.69798651  0.70485677    -0.01300
C442        C  0.82951591  0.74506143  0.70821990    -0.10400
C443        C  0.76140400  0.74940716  0.75507858     0.06100
H444        H  0.73273587  0.66016877  0.74543293     0.08000
H445        H  0.75911536  0.63122515  0.71610766     0.11500
H446        H  0.85489856  0.76903561  0.69730030     0.11800
H447        H  0.82987729  0.79812370  0.72685613     0.08100
C448        C  0.79138508  0.78644791  0.76783356    -0.11100
C449        C  0.77465827  0.80699224  0.78162403    -0.10400
C450        C  0.72765518  0.79086561  0.78298087    -0.01300
C451        C  0.69743671  0.75273846  0.77092424    -0.11400
C452        C  0.71415662  0.73202032  0.75714667    -0.09900
H453        H  0.82788498  0.80032403  0.76667379     0.08100
H454        H  0.79851568  0.83680266  0.79057839     0.11800
H455        H  0.66115449  0.74052093  0.77138026     0.11500
H456        H  0.69031573  0.70392561  0.74729610     0.08000
C457        C  0.70516057  0.56513017  0.61295513    -0.11000
C458        C  0.70537763  0.59529834  0.59752031     0.06100
C459        C  0.73578389  0.64230650  0.59980534    -0.09800
C460        C  0.76602994  0.65868826  0.61699515    -0.11500
C461        C  0.76589383  0.62834197  0.63219942    -0.01300
C462        C  0.73500382  0.58157257  0.63021165    -0.10400
C463        C  0.67308513  0.57738836  0.57943139     0.06100
H464        H  0.73657106  0.66621100  0.58813628     0.08000
H465        H  0.78971286  0.69493570  0.61841311     0.11500
H466        H  0.73415320  0.55784876  0.64200579     0.11800
H467        H  0.68144800  0.52884030  0.61180255     0.08100
C468        C  0.66627898  0.53831053  0.56852773    -0.11100
C469        C  0.63181579  0.51778359  0.55333886    -0.10400
C470        C  0.60329719  0.53575352  0.54883321    -0.01300
C471        C  0.61155729  0.57616587  0.55890409    -0.11400
C472        C  0.64647447  0.59707183  0.57396520    -0.09900
H473        H  0.68671762  0.52281437  0.57226135     0.08100
H474        H  0.62575206  0.48640618  0.54588856     0.11800
H475        H  0.58932021  0.59000759  0.55602891     0.11500
H476        H  0.65086553  0.62701685  0.58225188     0.08000
C477        C  0.84559863  0.56621367  0.60756794    -0.11000
C478        C  0.88002967  0.59695653  0.59376353     0.06100
C479        C  0.89942880  0.64402270  0.59742152    -0.09800
C480        C  0.88524098  0.65990896  0.61467932    -0.11500
C481        C  0.85166635  0.62906760  0.62866726    -0.01300
C482        C  0.83176046  0.58212986  0.62490643    -0.10400
C483        C  0.89729530  0.57963825  0.57646452     0.06100
H484        H  0.92585440  0.66851319  0.58703822     0.08000
H485        H  0.90125039  0.69626350  0.61747657     0.11500
H486        H  0.80671493  0.55780318  0.63584466     0.11800
H487        H  0.83063594  0.52976192  0.60546170     0.08100
C488        C  0.94447389  0.59905134  0.57294353    -0.11100
C489        C  0.96092622  0.57891169  0.55868089    -0.10400
C490        C  0.93050932  0.53923364  0.54761527    -0.01300
C491        C  0.88341371  0.52125247  0.55024052    -0.11400
C492        C  0.86694872  0.54130290  0.56447119    -0.09900
H493        H  0.96872783  0.62821713  0.58212327     0.08100
H494        H  0.99736631  0.59263414  0.55724573     0.11800
H495        H  0.85943784  0.49025167  0.54206389     0.11500
H496        H  0.83045824  0.52590770  0.56663293     0.08000
C497        C  0.70802466  0.99595737  0.65922330    -0.11000
C498        C  0.66693874  0.99653935  0.65674659     0.06100
C499        C  0.66899101  0.03912020  0.65629837    -0.09800
C500        C  0.71055390  0.07964529  0.65862519    -0.11500
C501        C  0.75136627  0.07886589  0.66075335    -0.01300
C502        C  0.74976681  0.03667135  0.66095853    -0.10400
C503        C  0.62214782  0.95311002  0.65513108     0.06100
H504        H  0.63851763  0.04136970  0.65403924     0.08000
H505        H  0.71088019  0.11176346  0.65873361     0.11500
H506        H  0.78087019  0.03527664  0.66261041     0.11800
H507        H  0.70803577  0.96406746  0.66013729     0.08100
C508        C  0.61893488  0.91384757  0.64573865    -0.11100
C509        C  0.57738124  0.87262186  0.64533514    -0.10400
C510        C  0.53775884  0.86972305  0.65399183    -0.01300
C511        C  0.54053486  0.90927139  0.66266096    -0.11400
C512        C  0.58214650  0.95020755  0.66340437    -0.09900
H513        H  0.64856261  0.91475476  0.63875325     0.08100
H514        H  0.57646950  0.84279902  0.63855696     0.11800
H515        H  0.51088406  0.90818966  0.66976161     0.11500
H516        H  0.58304406  0.97912478  0.67117400     0.08000
C517        C  0.95965608  0.32593419  0.68654692    -0.11000
C518        C  0.00209602  0.33294518  0.67939629     0.06100
C519        C  0.00315926  0.29781376  0.66788064    -0.09800
C520        C  0.96293494  0.25685667  0.66369475    -0.11500
C521        C  0.92090960  0.25041128  0.67075639    -0.01300
C522        C  0.91947971  0.28519116  0.68214043    -0.10400
C523        C  0.04471947  0.37736778  0.68306541     0.06100
H524        H  0.03497642  0.30218826  0.66177730     0.08000
H525        H  0.96453295  0.23007340  0.65503386     0.11500
H526        H  0.88724543  0.28039116  0.68791981     0.11800
H527        H  0.95745682  0.35175129  0.69574345     0.08100
C528        C  0.04396468  0.41848482  0.68224270    -0.11100
C529        C  0.08432277  0.46043811  0.68365367    -0.10400
C530        C  0.12664688  0.46248811  0.68560786    -0.01300
C531        C  0.12740505  0.42150385  0.68738744    -0.11400
C532        C  0.08685772  0.37941600  0.68629330    -0.09900
H533        H  0.01241450  0.41846748  0.67948675     0.08100
H534        H  0.08251056  0.49132790  0.68201710     0.11800
H535        H  0.15945646  0.42194724  0.68901885     0.11500
H536        H  0.08866020  0.34847826  0.68753023     0.08000
C537        C  0.75139901  0.06290745  0.72884054    -0.11000
C538        C  0.77254856  0.03752825  0.73399953     0.06100
C539        C  0.80963605  0.04301670  0.72169919    -0.09800
C540        C  0.82536709  0.07340221  0.70464189    -0.11500
C541        C  0.80449882  0.09899218  0.69970447    -0.01300
C542        C  0.76741713  0.09358715  0.71184207    -0.10400
C543        C  0.75533430  0.00419645  0.75167152     0.06100
H544        H  0.82592888  0.02315598  0.72504213     0.08000
H545        H  0.85359873  0.07677225  0.69518298     0.11500
H546        H  0.75102459  0.11320390  0.70814101     0.11800
H547        H  0.72282616  0.05932649  0.73808446     0.08100
C548        C  0.78610005  0.00066784  0.76542582    -0.11100
C549        C  0.77050394  0.96527597  0.78019956    -0.10400
C550        C  0.72391771  0.93298724  0.78153125    -0.01300
C551        C  0.69276827  0.93787901  0.76871333    -0.11400
C552        C  0.70835909  0.97340699  0.75391681    -0.09900
H553        H  0.82239575  0.02435691  0.76421941     0.08100
H554        H  0.79498078  0.96160899  0.78984441     0.11800
H555        H  0.65679102  0.91267776  0.76928730     0.11500
H556        H  0.68398837  0.97518013  0.74339290     0.08000
C557        C  0.65835128  0.05387109  0.57159320    -0.11000
C558        C  0.68592726  0.10099467  0.57541220     0.06100
C559        C  0.67636935  0.13133348  0.56432530    -0.09800
C560        C  0.63871994  0.11491114  0.55073747    -0.11500
C561        C  0.61003048  0.06786254  0.54777602    -0.01300
C562        C  0.62067191  0.03746864  0.55792961    -0.10400
C563        C  0.72194506  0.11814011  0.59215089     0.06100
H564        H  0.69720521  0.16778869  0.56667732     0.08000
H565        H  0.63065396  0.13885283  0.54327979     0.11500
H566        H  0.59832322  0.00101554  0.55623659     0.11800
H567        H  0.66433309  0.02953317  0.58008304     0.08100
C568        C  0.72698866  0.15269046  0.60621376    -0.11100
C569        C  0.75778057  0.16615966  0.62315208    -0.10400
C570        C  0.78419238  0.14541518  0.62642930    -0.01300
C571        C  0.78044119  0.11200184  0.61208746    -0.11400
C572        C  0.74960817  0.09846989  0.59509891    -0.09900
H573        H  0.70566089  0.16795305  0.60469927     0.08100
H574        H  0.75938879  0.19121010  0.63432866     0.11800
H575        H  0.80036601  0.09541807  0.61446928     0.11500
H576        H  0.74686577  0.07209995  0.58446597     0.08000
C577        C  0.87097699  0.29640726  0.61508666    -0.11000
C578        C  0.90060591  0.29710983  0.59928008     0.06100
C579        C  0.91556089  0.26525933  0.60008298    -0.09800
C580        C  0.89983385  0.23220741  0.61612282    -0.11500
C581        C  0.86964933  0.23124421  0.63163443    -0.01300
C582        C  0.85595493  0.26395121  0.63126814    -0.10400
C583        C  0.91469751  0.33059508  0.58183151     0.06100
H584        H  0.93847395  0.26535774  0.58805617     0.08000
H585        H  0.91103842  0.20735525  0.61645621     0.11500
H586        H  0.83336190  0.26403816  0.64342243     0.11800
H587        H  0.85960044  0.32113735  0.61491554     0.08100
C588        C  0.88143970  0.33515212  0.57059357    -0.11100
C589        C  0.89419747  0.36973763  0.55561852    -0.10400
C590        C  0.94043440  0.40059978  0.55171601    -0.01300
C591        C  0.97385987  0.39511279  0.56232729    -0.11400
C592        C  0.96102380  0.35994277  0.57718124    -0.09900
H593        H  0.84553773  0.31260740  0.57383577     0.08100
H594        H  0.86799807  0.37376642  0.54772050     0.11800
H595        H  0.00970845  0.41921639  0.55981530     0.11500
H596        H  0.98716189  0.35707237  0.58580027     0.08000
C597        C  0.99536998  0.78628529  0.76554492    -0.11000
C598        C  0.98991141  0.74874490  0.75370933     0.06100
C599        C  0.01924628  0.73139502  0.75756913    -0.09800
C600        C  0.05537046  0.75322770  0.77198158    -0.11500
C601        C  0.06212478  0.79219759  0.78295890    -0.01300
C602        C  0.03112665  0.80777772  0.78004773    -0.10400
C603        C  0.95665437  0.73076672  0.73601755     0.06100
H604        H  0.01589792  0.70270086  0.74851413     0.08000
H605        H  0.07940572  0.74119579  0.77375074     0.11500
H606        H  0.03598115  0.83796434  0.78828267     0.11800
H607        H  0.97289616  0.79997826  0.76299533     0.08100
C608        C  0.92748752  0.68364789  0.73326981    -0.11100
C609        C  0.89686158  0.66733287  0.71620707    -0.10400
C610        C  0.89548587  0.69788509  0.70157686    -0.01300
C611        C  0.92521736  0.74479173  0.70403569    -0.11400
C612        C  0.95523284  0.76114111  0.72121852    -0.09900
H613        H  0.92810986  0.65960869  0.74442978     0.08100
H614        H  0.87420450  0.63096489  0.71439130     0.11800
H615        H  0.92523485  0.76869964  0.69259791     0.11500
H616        H  0.97805171  0.79755372  0.72272572     0.08000
C617        C  0.95405991  0.18487108  0.72244353    -0.11000
C618        C  0.94983868  0.21036680  0.73898671     0.06100
C619        C  0.91533821  0.22178098  0.73789512    -0.09800
C620        C  0.88558137  0.20788624  0.72048205    -0.11500
C621        C  0.89068651  0.18336825  0.70377376    -0.01300
C622        C  0.92505061  0.17193572  0.70487367    -0.10400
C623        C  0.98275636  0.22606077  0.75681445     0.06100
H624        H  0.91156908  0.24147320  0.75046125     0.08000
H625        H  0.85944991  0.21735191  0.71969862     0.11500
H626        H  0.92988996  0.15374002  0.69192061     0.11800
H627        H  0.98079944  0.17620288  0.72282799     0.08100
C628        C  0.99106421  0.19472412  0.76763159    -0.11100
C629        C  0.02686705  0.20986853  0.78216194    -0.10400
C630        C  0.05539800  0.25667781  0.78601726    -0.01300
C631        C  0.04581776  0.28800964  0.77598297    -0.11400
C632        C  0.00938818  0.27273506  0.76162135    -0.09900
H633        H  0.97087947  0.15860308  0.76420485     0.08100
H634        H  0.03397974  0.18519048  0.78955245     0.11800
H635        H  0.06799786  0.32429558  0.77835841     0.11500
H636        H  0.00381402  0.29750923  0.75327585     0.08000
C637        C  0.36883121  0.41770801  0.66933732    -0.11000
C638        C  0.33318959  0.37844608  0.65980751     0.06100
C639        C  0.29776912  0.38164815  0.64976004    -0.09800
C640        C  0.29708043  0.42256267  0.65002798    -0.11500
C641        C  0.33214688  0.46134342  0.66005982    -0.01300
C642        C  0.36850352  0.45872803  0.66930397    -0.10400
C643        C  0.33237147  0.33417177  0.66103077     0.06100
H644        H  0.27030964  0.35244085  0.64183658     0.08000
H645        H  0.26873431  0.42364305  0.64265779     0.11500
H646        H  0.39581551  0.48789455  0.67734433     0.11800
H647        H  0.39627703  0.41648235  0.67754873     0.08100
C648        C  0.37325260  0.33289846  0.66056591    -0.11100
C649        C  0.37269656  0.29163158  0.66267986    -0.10400
C650        C  0.33124822  0.25060991  0.66470434    -0.01300
C651        C  0.29031616  0.25149404  0.66496877    -0.11400
C652        C  0.29086277  0.29290351  0.66334278    -0.09900
H653        H  0.40577241  0.36375463  0.65842491     0.08100
H654        H  0.40463582  0.29156844  0.66246477     0.11800
H655        H  0.25797212  0.22009156  0.66639135     0.11500
H656        H  0.25878109  0.29256202  0.66418538     0.08000
C657        C  0.30111100  0.00114265  0.65950370    -0.11000
C658        C  0.32995042  0.99642208  0.67414272     0.06100
C659        C  0.35973222  0.03425289  0.68657457    -0.09800
C660        C  0.36103178  0.07580624  0.68427734    -0.11500
C661        C  0.33185608  0.08015566  0.66990257    -0.01300
C662        C  0.30193664  0.04265802  0.65748191    -0.10400
C663        C  0.33019791  0.95280806  0.67600774     0.06100
H664        H  0.38191986  0.03174007  0.69820873     0.08000
H665        H  0.38464208  0.10462158  0.69382657     0.11500
H666        H  0.27927997  0.04561072  0.64626711     0.11800
H667        H  0.27838666  0.97299598  0.64939755     0.08100
C668        C  0.28971872  0.91057917  0.67399288    -0.11100
C669        C  0.29073759  0.86982199  0.67468892    -0.10400
C670        C  0.33223406  0.87044831  0.67755006    -0.01300
C671        C  0.37239350  0.91257968  0.68025433    -0.11400
C672        C  0.37142720  0.95321290  0.67937293    -0.09900
H673        H  0.25726489  0.90900662  0.67176169     0.08100
H674        H  0.25916118  0.83790835  0.67255958     0.11800
H675        H  0.40499954  0.91436632  0.68229580     0.11500
H676        H  0.40336988  0.98504886  0.68062611     0.08000
C677        C  0.26679962  0.98837990  0.76190409    -0.11000
C678        C  0.24614167  0.01444124  0.75718348     0.06100
C679        C  0.20553603  0.00446796  0.76756973    -0.09800
C680        C  0.18462939  0.96759838  0.78159062    -0.11500
C681        C  0.20366643  0.93969446  0.78533695    -0.01300
C682        C  0.24548159  0.95097632  0.77574336    -0.10400
C683        C  0.26365032  0.04814251  0.73964886     0.06100
H684        H  0.18906680  0.02414014  0.76414493     0.08000
H685        H  0.15220033  0.95926500  0.78865780     0.11500
H686        H  0.26026244  0.92938055  0.77803756     0.11800
H687        H  0.29786158  0.99520988  0.75385704     0.08100
C688        C  0.30860557  0.08496440  0.73970356    -0.11100
C689        C  0.32492303  0.11536206  0.72249544    -0.10400
C690        C  0.29696746  0.10836246  0.70475720    -0.01300
C691        C  0.25209580  0.07168718  0.70475311    -0.11400
C692        C  0.23538355  0.04219672  0.72216876    -0.09900
H693        H  0.33093995  0.09009307  0.75302079     0.08100
H694        H  0.35969977  0.14353394  0.72269406     0.11800
H695        H  0.23021400  0.06571746  0.69114562     0.11500
H696        H  0.20072725  0.01379956  0.72173309     0.08000
C697        C  0.31052451  0.24258657  0.73296244    -0.11000
C698        C  0.26367057  0.21873672  0.73770702     0.06100
C699        C  0.23387778  0.18229566  0.72460143    -0.09800
C700        C  0.25053639  0.16997410  0.70711495    -0.11500
C701        C  0.29726615  0.19356439  0.70252926    -0.01300
C702        C  0.32723022  0.22994453  0.71550724    -0.10400
C703        C  0.24514128  0.23294017  0.75554828     0.06100
H704        H  0.19750685  0.16397534  0.72758922     0.08000
H705        H  0.22698430  0.14215040  0.69705839     0.11500
H706        H  0.36345014  0.24833479  0.71213208     0.11800
H707        H  0.33418183  0.27073416  0.74283199     0.08100
C708        C  0.21004411  0.20000394  0.76834013    -0.11100
C709        C  0.18779569  0.21293644  0.78303048    -0.10400
C710        C  0.20065727  0.25897135  0.78530288    -0.01300
C711        C  0.23734654  0.29220120  0.77348310    -0.11400
C712        C  0.25953773  0.27929204  0.75870738    -0.09900
H713        H  0.19873785  0.16411517  0.76642140     0.08100
H714        H  0.15921424  0.18693669  0.79195082     0.11800
H715        H  0.24704870  0.32781117  0.77485050     0.11500
H716        H  0.28612807  0.30530618  0.74890683     0.08000
C717        C  0.36264355  0.10757114  0.59650679    -0.11000
C718        C  0.40048025  0.10214356  0.60052176     0.06100
C719        C  0.42255747  0.11570698  0.62029580    -0.09800
C720        C  0.40646190  0.13315549  0.63595097    -0.11500
C721        C  0.36759968  0.13679716  0.63227177    -0.01300
C722        C  0.34612000  0.12452357  0.61235246    -0.10400
C723        C  0.41716686  0.08216567  0.58437924     0.06100
H724        H  0.45237547  0.11280470  0.62364513     0.08000
H725        H  0.42377876  0.14303190  0.65114050     0.11500
H726        H  0.31601609  0.12708990  0.60928237     0.11800
H727        H  0.34511044  0.09742629  0.58138313     0.08100
C728        C  0.42378363  0.09716174  0.56315523    -0.11100
C729        C  0.44481921  0.08210493  0.54868738    -0.10400
C730        C  0.45884379  0.05137432  0.55519803    -0.01300
C731        C  0.44999280  0.03459256  0.57607758    -0.11400
C732        C  0.42934054  0.04979813  0.59052520    -0.09900
H733        H  0.41489685  0.12228411  0.55806954     0.08100
H734        H  0.45211682  0.09602460  0.53273961     0.11800
H735        H  0.46084831  0.01109132  0.58141549     0.11500
H736        H  0.42396052  0.03716683  0.60669968     0.08000
C737        C  0.45203581  0.32376818  0.56433798    -0.11000
C738        C  0.41628984  0.31897761  0.57746962     0.06100
C739        C  0.40037551  0.34999521  0.57499427    -0.09800
C740        C  0.42132960  0.38627232  0.56054089    -0.11500
C741        C  0.45840468  0.39209483  0.54822814    -0.01300
C742        C  0.47295948  0.36002784  0.54995192    -0.10400
C743        C  0.39784300  0.28376837  0.59459797     0.06100
H744        H  0.37332921  0.34767774  0.58502704     0.08000
H745        H  0.41029681  0.41123809  0.55981655     0.11500
H746        H  0.50192054  0.36428320  0.54079738     0.11800
H747        H  0.46467230  0.30014824  0.56559715     0.08100
C748        C  0.35104547  0.26022019  0.59952813    -0.11100
C749        C  0.33440655  0.22923633  0.61646501    -0.10400
C750        C  0.36421273  0.22137151  0.62891696    -0.01300
C751        C  0.41075072  0.24401902  0.62378348    -0.11400
C752        C  0.42740003  0.27485785  0.60680683    -0.09900
H753        H  0.32731886  0.26593600  0.59035025     0.08100
H754        H  0.29836591  0.21209417  0.62020006     0.11800
H755        H  0.43438479  0.23890190  0.63337138     0.11500
H756        H  0.46371822  0.29293719  0.60371149     0.08000
C757        C  0.95305005  0.24348994  0.01567052    -0.11000
C758        C  0.99376987  0.28486052  0.01234217     0.06100
C759        C  0.03500273  0.28443012  0.01119967    -0.09800
C760        C  0.03531147  0.24335900  0.01239561    -0.11500
C761        C  0.99438181  0.20172175  0.01483769    -0.01300
C762        C  0.95335338  0.20240396  0.01696975    -0.10400
C763        C  0.99325547  0.32813065  0.00929456     0.06100
H764        H  0.06691199  0.31569838  0.00849963     0.08000
H765        H  0.06748789  0.24412307  0.01062359     0.11500
H766        H  0.92116855  0.17099994  0.01885549     0.11800
H767        H  0.92084682  0.24283740  0.01697252     0.08100
C768        C  0.95964293  0.32936994  0.99659290    -0.11100
C769        C  0.96001660  0.37042951  0.99327858    -0.10400
C770        C  0.99391370  0.41080996  0.00263225    -0.01300
C771        C  0.02760006  0.40978901  0.01517168    -0.11400
C772        C  0.02722501  0.36884364  0.01853437    -0.09900
H773        H  0.93344113  0.29870505  0.98899850     0.08100
H774        H  0.93374109  0.37072301  0.98357868     0.11800
H775        H  0.05396737  0.44073984  0.02250662     0.11500
H776        H  0.05329597  0.36894367  0.02853301     0.08000
C777        C  0.04062558  0.66499401  0.98811401    -0.11000
C778        C  0.00127903  0.66872680  0.99071333     0.06100
C779        C  0.95987951  0.62887392  0.99564879    -0.09800
C780        C  0.95776015  0.58669060  0.99739922    -0.11500
C781        C  0.99720816  0.58343725  0.99506783    -0.01300
C782        C  0.03876987  0.62314798  0.99076829    -0.10400
C783        C  0.00363745  0.71395374  0.98880265     0.06100
H784        H  0.92896459  0.63003653  0.99837658     0.08000
H785        H  0.92522879  0.55650028  0.00060620     0.11500
H786        H  0.06979687  0.62163089  0.98914000     0.11800
H787        H  0.07303705  0.69423418  0.98384994     0.08100
C788        C  0.04415684  0.75464420  0.99373217    -0.11100
C789        C  0.04598457  0.79672289  0.99285522    -0.10400
C790        C  0.00706277  0.79931263  0.98763724    -0.01300
C791        C  0.96670490  0.75910072  0.98239752    -0.11400
C792        C  0.96520436  0.71702483  0.98263189    -0.09900
H793        H  0.07428289  0.75420655  0.99906445     0.08100
H794        H  0.07738678  0.82709314  0.99733738     0.11800
H795        H  0.93619803  0.76016128  0.97827562     0.11500
H796        H  0.93368755  0.68696695  0.97809744     0.08000
C797        C  0.01446496  0.58806784  0.92957722    -0.11000
C798        C  0.06126788  0.60983625  0.92460799     0.06100
C799        C  0.08961603  0.59937396  0.93687230    -0.09800
C800        C  0.07203860  0.56922028  0.95400620    -0.11500
C801        C  0.02571554  0.54870299  0.95930963    -0.01300
C802        C  0.99687084  0.55775240  0.94675624    -0.10400
C803        C  0.08144857  0.64571826  0.90781176     0.06100
H804        H  0.12592919  0.61613790  0.93389860     0.08000
H805        H  0.09506185  0.56352632  0.96376487     0.11500
H806        H  0.96102267  0.54234881  0.95066793     0.11800
H807        H  0.99154482  0.59492142  0.92037306     0.08100
C808        C  0.11882385  0.65133223  0.89565211    -0.11100
C809        C  0.14216249  0.68901223  0.88222607    -0.10400
C810        C  0.12812980  0.72139544  0.88034666    -0.01300
C811        C  0.08938280  0.71470424  0.89147972    -0.11400
C812        C  0.06624494  0.67724486  0.90509898    -0.09900
H813        H  0.13093598  0.62730468  0.89699011     0.08100
H814        H  0.17215900  0.69378267  0.87383077     0.11800
H815        H  0.07850162  0.73976170  0.89046124     0.11500
H816        H  0.03805412  0.67446846  0.91437329     0.08000
C817        C  0.08687715  0.45388275  0.94939533    -0.11000
C818        C  0.06071559  0.43302644  0.93118757     0.06100
C819        C  0.01662402  0.42682200  0.92951667    -0.09800
C820        C  0.99937412  0.44225783  0.94570591    -0.11500
C821        C  0.02578432  0.46319016  0.96381895    -0.01300
C822        C  0.06938384  0.46851653  0.96566105    -0.10400
C823        C  0.08007132  0.41802379  0.91413949     0.06100
H824        H  0.99598951  0.41075126  0.91558267     0.08000
H825        H  0.96552559  0.43779436  0.94419791     0.11500
H826        H  0.08994719  0.48440631  0.97964213     0.11800
H827        H  0.12075837  0.45848086  0.95107662     0.08100
C828        C  0.12310249  0.44877209  0.90577938    -0.11100
C829        C  0.14445441  0.43375029  0.89166305    -0.10400
C830        C  0.12346223  0.38757718  0.88587848    -0.01300
C831        C  0.07964609  0.35704197  0.89363950    -0.11400
C832        C  0.05779721  0.37233165  0.90748511    -0.09900
H833        H  0.14073786  0.48418044  0.91069008     0.08100
H834        H  0.17841294  0.45774661  0.88600897     0.11800
H835        H  0.06334527  0.32110260  0.88978190     0.11500
H836        H  0.02473768  0.34805814  0.91394620     0.08000
C837        C  0.28763847  0.24652162  0.99677689    -0.11000
C838        C  0.29025037  0.28844538  0.99251719     0.06100
C839        C  0.25017672  0.28908224  0.98746198    -0.09800
C840        C  0.20805989  0.24869231  0.98732769    -0.11500
C841        C  0.20517254  0.20684836  0.99230410    -0.01300
C842        C  0.24555449  0.20615418  0.99670811    -0.10400
C843        C  0.33438380  0.33152055  0.99420990     0.06100
H844        H  0.25140186  0.32094021  0.98382285     0.08000
H845        H  0.17765936  0.25043956  0.98384759     0.11500
H846        H  0.24457994  0.17456813  0.00069912     0.11800
H847        H  0.31797920  0.24514345  0.00088939     0.08100
C848        C  0.37427116  0.33511926  0.98550059    -0.11100
C849        C  0.41591270  0.37569853  0.98738803    -0.10400
C850        C  0.41826371  0.41301983  0.99813956    -0.01300
C851        C  0.37866390  0.40954691  0.00692456    -0.11400
C852        C  0.33700580  0.36911616  0.00496527    -0.09900
H853        H  0.37306591  0.30678489  0.97696847     0.08100
H854        H  0.44621835  0.37829261  0.98024845     0.11800
H855        H  0.37995962  0.43842399  0.01496726     0.11500
H856        H  0.30687748  0.36707934  0.01201284     0.08000
C857        C  0.66890194  0.63191972  0.99379285    -0.11000
C858        C  0.67022143  0.66731379  0.00604037     0.06100
C859        C  0.62951322  0.66116804  0.01502016    -0.09800
C860        C  0.58856935  0.62028287  0.01208304    -0.11500
C861        C  0.58760666  0.58498810  0.00006855    -0.01300
C862        C  0.62791761  0.59109360  0.99084511    -0.10400
C863        C  0.71385180  0.71064696  0.00914030     0.06100
H864        H  0.62952567  0.68759028  0.02469573     0.08000
H865        H  0.55774773  0.61568329  0.01956598     0.11500
H866        H  0.62779607  0.56382330  0.98182466     0.11800
H867        H  0.69956363  0.63586755  0.98643089     0.08100
C868        C  0.75460761  0.71025411  0.01271660    -0.11100
C869        C  0.79623404  0.75107013  0.01386077    -0.10400
C870        C  0.79805814  0.79322028  0.01137422    -0.01300
C871        C  0.75702645  0.79364319  0.00879719    -0.11400
C872        C  0.71537875  0.75279923  0.00772984    -0.09900
H873        H  0.75437340  0.67829759  0.01430855     0.08100
H874        H  0.82715108  0.74947497  0.01591150     0.11800
H875        H  0.75719035  0.82549758  0.00684872     0.11500
H876        H  0.68457511  0.75421076  0.00489839     0.08000
C877        C  0.53429963  0.65734746  0.89906303    -0.11000
C878        C  0.56758389  0.65395778  0.91094002     0.06100
C879        C  0.61391673  0.68498269  0.90706595    -0.09800
C880        C  0.62661936  0.72038254  0.89238820    -0.11500
C881        C  0.59316477  0.72481864  0.88123988    -0.01300
C882        C  0.54700543  0.69250985  0.88433407    -0.10400
C883        C  0.55383598  0.62048474  0.92846119     0.06100
H884        H  0.64013286  0.68326410  0.91619500     0.08000
H885        H  0.66234968  0.74559153  0.89048697     0.11500
H886        H  0.52077871  0.69577397  0.87600916     0.11800
H887        H  0.49840346  0.63357785  0.90167214     0.08100
C888        C  0.52150731  0.61702275  0.94346520    -0.11100
C889        C  0.50946030  0.58677456  0.96052124    -0.10400
C890        C  0.52928202  0.55932083  0.96273653    -0.01300
C891        C  0.56110562  0.56216207  0.94767369    -0.11400
C892        C  0.57362186  0.59285725  0.93071662    -0.09900
H893        H  0.50623632  0.63840078  0.94220300     0.08100
H894        H  0.48487468  0.58488715  0.97207906     0.11800
H895        H  0.57629578  0.54075180  0.94912302     0.11500
H896        H  0.59845165  0.59484016  0.91928719     0.08000
C897        C  0.34317479  0.42688751  0.89405181    -0.11000
C898        C  0.33782956  0.41261208  0.91534546     0.06100
C899        C  0.29491358  0.37835637  0.92243305    -0.09800
C900        C  0.25737995  0.36042287  0.90881136    -0.11500
C901        C  0.26192823  0.37667438  0.88789854    -0.01300
C902        C  0.30531173  0.40932333  0.88044554    -0.10400
C903        C  0.37548152  0.43582122  0.93079643     0.06100
H904        H  0.29016915  0.36668440  0.93876962     0.08000
H905        H  0.22415485  0.33557520  0.91492265     0.11500
H906        H  0.30935828  0.42293910  0.86450933     0.11800
H907        H  0.37600316  0.45345789  0.88834350     0.08100
C908        C  0.41709996  0.43677904  0.92805349    -0.11100
C909        C  0.45064774  0.45527177  0.94391305    -0.10400
C910        C  0.44310080  0.47356311  0.96246318    -0.01300
C911        C  0.40261850  0.47492561  0.96458157    -0.11400
C912        C  0.36890911  0.45581173  0.94899006    -0.09900
H913        H  0.42278125  0.42156194  0.91411099     0.08100
H914        H  0.48166116  0.45375541  0.94212800     0.11800
H915        H  0.39638442  0.48906234  0.97877043     0.11500
H916        H  0.33724183  0.45587217  0.95128468     0.08000
C917        C  0.63611818  0.97348566  0.00573027    -0.11000
C918        C  0.67076570  0.00322755  0.99173049     0.06100
C919        C  0.66429465  0.03491413  0.98000509    -0.09800
C920        C  0.62391444  0.03634895  0.98200216    -0.11500
C921        C  0.58929154  0.00625589  0.99578394    -0.01300
C922        C  0.59577524  0.97502063  0.00773715    -0.10400
C923        C  0.71346030  0.00119859  0.98943760     0.06100
H924        H  0.69010180  0.05802364  0.96898389     0.08000
H925        H  0.61944091  0.06072717  0.97268245     0.11500
H926        H  0.56937224  0.95156296  0.01844634     0.11800
H927        H  0.64034485  0.94920960  0.01524935     0.08100
C928        C  0.75609545  0.04140166  0.98805157    -0.11100
C929        C  0.79637535  0.03944290  0.98717017    -0.10400
C930        C  0.79492980  0.99721462  0.98747364    -0.01300
C931        C  0.75220434  0.95699798  0.98799346    -0.11400
C932        C  0.71198652  0.95897907  0.98905577    -0.09900
H933        H  0.75844275  0.07447075  0.98843199     0.08100
H934        H  0.82872686  0.07106221  0.98684797     0.11800
H935        H  0.74984658  0.92391580  0.98839134     0.11500
H936        H  0.67966427  0.92738503  0.98974276     0.08000
C937        C  0.33610950  0.96167915  0.00880083    -0.11000
C938        C  0.33399790  0.00210537  0.00753192     0.06100
C939        C  0.37409263  0.04319613  0.00263788    -0.09800
C940        C  0.41529110  0.04391973  0.99947193    -0.11500
C941        C  0.41707359  0.00356844  0.00091993    -0.01300
C942        C  0.37723206  0.96240787  0.00540374    -0.10400
C943        C  0.29001431  0.00125540  0.01079297     0.06100
H944        H  0.37361036  0.07477997  0.00109348     0.08000
H945        H  0.44593296  0.07598468  0.99608285     0.11500
H946        H  0.37831952  0.93109381  0.00683098     0.11800
H947        H  0.30616532  0.92955474  0.01282134     0.08100
C948        C  0.24900861  0.96433800  0.00333955    -0.11100
C949        C  0.20807129  0.96460655  0.00510697    -0.10400
C950        C  0.20703304  0.00207829  0.01412608    -0.01300
C951        C  0.24769128  0.03835747  0.02226168    -0.11400
C952        C  0.28868357  0.03782713  0.02072094    -0.09900
H953        H  0.24869515  0.93588978  0.99535087     0.08100
H954        H  0.17752944  0.93621614  0.99848011     0.11800
H955        H  0.24806318  0.06768101  0.02932938     0.11500
H956        H  0.31945273  0.06637371  0.02706839     0.08000
C957        C  0.34031636  0.87906912  0.89891060    -0.11000
C958        C  0.34343590  0.91485468  0.91148519     0.06100
C959        C  0.31089186  0.92865005  0.90864741    -0.09800
C960        C  0.27467400  0.90549168  0.89440340    -0.11500
C961        C  0.27057169  0.86839538  0.88268808    -0.01300
C962        C  0.30407633  0.85589868  0.88475786    -0.10400
C963        C  0.37809072  0.93491989  0.92868749     0.06100
H964        H  0.31203287  0.95571643  0.91824228     0.08000
H965        H  0.24868557  0.91510975  0.89323823     0.11500
H966        H  0.30126216  0.82716444  0.87592388     0.11800
H967        H  0.36523993  0.86812595  0.90046304     0.08100
C968        C  0.38763104  0.90644394  0.94134238    -0.11100
C969        C  0.41825229  0.92429954  0.95825482    -0.10400
C970        C  0.44043633  0.97104936  0.96275787    -0.01300
C971        C  0.43133274  0.99979500  0.95017139    -0.11400
C972        C  0.40027145  0.98186207  0.93330215    -0.09900
H973        H  0.37041762  0.87003661  0.93855189     0.08100
H974        H  0.42430879  0.90152026  0.96802164     0.11800
H975        H  0.44823664  0.03602057  0.95344821     0.11500
H976        H  0.39378298  0.00468950  0.92380519     0.08000
C977        C  0.53055215  0.90752591  0.94532335    -0.11000
C978        C  0.55003442  0.93327353  0.92683648     0.06100
C979        C  0.55743461  0.97789854  0.92559592    -0.09800
C980        C  0.54489924  0.99618989  0.94255230    -0.11500
C981        C  0.52588961  0.97040515  0.96107578    -0.01300
C982        C  0.51906323  0.92612057  0.96237654    -0.10400
C983        C  0.56285509  0.91307681  0.90918677     0.06100
H984        H  0.57250070  0.99829756  0.91148023     0.08000
H985        H  0.55071345  0.03060538  0.94142604     0.11500
H986        H  0.50487669  0.90603641  0.97666214     0.11800
H987        H  0.52500320  0.87322952  0.94668724     0.08100
C988        C  0.60831349  0.93320919  0.90228100    -0.11100
C989        C  0.62143247  0.91014433  0.88797518    -0.10400
C990        C  0.58904283  0.86713346  0.88000850    -0.01300
C991        C  0.54317310  0.84839675  0.88607868    -0.11400
C992        C  0.53027510  0.87096969  0.90062551    -0.09900
H993        H  0.63404866  0.96544913  0.90890371     0.08100
H994        H  0.65715213  0.92476016  0.88396982     0.11800
H995        H  0.51767186  0.81510741  0.88032462     0.11500
H996        H  0.49504965  0.85487999  0.90575025     0.08000
C997        C  0.88615232  0.54884023  0.10019212    -0.11000
C998        C  0.92099027  0.57902437  0.08645214     0.06100
C999        C  0.93696781  0.62606367  0.08807190    -0.09800
C1000       C  0.91630635  0.64220011  0.10214850    -0.11500
C1001       C  0.87972903  0.61155248  0.11487112    -0.01300
C1002       C  0.86556468  0.56498272  0.11421434    -0.10400
C1003       C  0.93701185  0.56106256  0.06904207     0.06100
H1004       H  0.96343182  0.65001964  0.07753501     0.08000
H1005       H  0.92707062  0.67817876  0.10226372     0.11500
H1006       H  0.83706363  0.54091574  0.12382481     0.11800
H1007       H  0.87360525  0.51251453  0.09947129     0.08100
C1008       C  0.90512156  0.52352950  0.05706463    -0.11100
C1009       C  0.91916050  0.50801088  0.03974490    -0.10400
C1010       C  0.96533701  0.52948117  0.03413747    -0.01300
C1011       C  0.99746785  0.56665896  0.04611581    -0.11400
C1012       C  0.98338547  0.58248360  0.06342490    -0.09900
H1013       H  0.86907519  0.50695516  0.06071679     0.08100
H1014       H  0.89392256  0.47960399  0.03048696     0.11800
H1015       H  0.03329564  0.58342653  0.04198113     0.11500
H1016       H  0.00864593  0.61138050  0.07242147     0.08000
C1017       C  0.58559846  0.55609063  0.07083586    -0.11000
C1018       C  0.62850596  0.55984145  0.06819402     0.06100
C1019       C  0.63778769  0.54352853  0.04944808    -0.09800
C1020       C  0.60530254  0.52506120  0.03330422    -0.11500
C1021       C  0.56334830  0.52347315  0.03543331    -0.01300
C1022       C  0.55327934  0.53830780  0.05444280    -0.10400
C1023       C  0.66463375  0.58211482  0.08441101     0.06100
H1024       H  0.67052948  0.54569613  0.04721097     0.08000
H1025       H  0.61346561  0.51351541  0.01878549     0.11500
H1026       H  0.52110956  0.53754399  0.05625666     0.11800
H1027       H  0.57786111  0.56849837  0.08519295     0.08100
C1028       C  0.65858303  0.56441680  0.10511164    -0.11100
C1029       C  0.69548681  0.58157634  0.11928604    -0.10400
C1030       C  0.73852254  0.61710340  0.11299209    -0.01300
C1031       C  0.74362919  0.63650815  0.09273631    -0.11400
C1032       C  0.70707974  0.61908688  0.07854946    -0.09900
H1033       H  0.62612003  0.53568624  0.10984863     0.08100
H1034       H  0.69115246  0.56557125  0.13467733     0.11800
H1035       H  0.77669518  0.66354911  0.08750762     0.11500
H1036       H  0.71234058  0.63332866  0.06268168     0.08000
C1037       C  0.70102987  0.00130813  0.33810708    -0.11000
C1038       C  0.66791399  0.00335088  0.32540639     0.06100
C1039       C  0.63457283  0.96348880  0.31533111    -0.09800
C1040       C  0.63495811  0.92262083  0.31755945    -0.11500
C1041       C  0.66810716  0.92081559  0.33021487    -0.01300
C1042       C  0.70086753  0.96024826  0.34063893    -0.10400
C1043       C  0.66811765  0.04696522  0.32289600     0.06100
H1044       H  0.60880445  0.96419461  0.30540885     0.08000
H1045       H  0.60952536  0.89236348  0.30939354     0.11500
H1046       H  0.72667984  0.95929099  0.35043284     0.11800
H1047       H  0.72674904  0.03140897  0.34625847     0.08100
C1048       C  0.62765026  0.04851732  0.32507425    -0.11100
C1049       C  0.62856419  0.09024711  0.32438824    -0.10400
C1050       C  0.66994815  0.13123898  0.32134359    -0.01300
C1051       C  0.71006814  0.12931749  0.31822953    -0.11400
C1052       C  0.70916497  0.08765611  0.31907437    -0.09900
H1053       H  0.59557413  0.01763601  0.32811638     0.08100
H1054       H  0.59705132  0.09049185  0.32687659     0.11800
H1055       H  0.74252009  0.16017853  0.31584766     0.11500
H1056       H  0.74071900  0.08727506  0.31701144     0.08000
C1057       C  0.63087605  0.58492744  0.35029530    -0.11000
C1058       C  0.66783720  0.62341239  0.34088632     0.06100
C1059       C  0.70397748  0.61918987  0.33248794    -0.09800
C1060       C  0.70284900  0.57745570  0.33309425    -0.11500
C1061       C  0.66528346  0.53862811  0.34187909    -0.01300
C1062       C  0.62950088  0.54292650  0.35069209    -0.10400
C1063       C  0.66839036  0.66752591  0.33932668     0.06100
H1064       H  0.73260701  0.64781525  0.32480853     0.08000
H1065       H  0.73078885  0.57530621  0.32593718     0.11500
H1066       H  0.60010063  0.51368320  0.35758426     0.11800
H1067       H  0.60285355  0.58718563  0.35726490     0.08100
C1068       C  0.62798791  0.66839669  0.33518122    -0.11100
C1069       C  0.62867437  0.70986439  0.33346155    -0.10400
C1070       C  0.66973677  0.75112559  0.33570655    -0.01300
C1071       C  0.71017518  0.75062227  0.33962377    -0.11400
C1072       C  0.70950847  0.70920468  0.34152696    -0.09900
H1073       H  0.59591815  0.63705366  0.33298769     0.08100
H1074       H  0.59721875  0.70987563  0.33036824     0.11800
H1075       H  0.74207264  0.78232504  0.34153255     0.11500
H1076       H  0.74112036  0.70985048  0.34501686     0.08000
C1077       C  0.57913436  0.90773624  0.43625330    -0.11000
C1078       C  0.58598386  0.92308453  0.41510023     0.06100
C1079       C  0.57329242  0.95506189  0.40895118    -0.09800
C1080       C  0.55210349  0.96972492  0.42341148    -0.11500
C1081       C  0.54314788  0.95263735  0.44425233    -0.01300
C1082       C  0.55748590  0.92211920  0.45069393    -0.10400
C1083       C  0.60270352  0.90307778  0.39901967     0.06100
H1084       H  0.57858021  0.96764670  0.39276845     0.08000
H1085       H  0.54091116  0.99298681  0.41811289     0.11500
H1086       H  0.55003804  0.90788863  0.46658131     0.11800
H1087       H  0.58828675  0.88276841  0.44127937     0.08100
C1088       C  0.64179784  0.89963395  0.40271385    -0.11100
C1089       C  0.65740526  0.88115564  0.38716023    -0.10400
C1090       C  0.63372702  0.86535822  0.36789996    -0.01300
C1091       C  0.59387252  0.86738775  0.36453668    -0.11400
C1092       C  0.57873843  0.88646527  0.37985863    -0.09900
H1093       H  0.66075312  0.91219644  0.41738675     0.08100
H1094       H  0.68843366  0.88009846  0.38990906     0.11800
H1095       H  0.57508524  0.85508206  0.34980314     0.11500
H1096       H  0.54807270  0.88802633  0.37679862     0.08000
C1097       C  0.56909604  0.72554666  0.39200792    -0.11000
C1098       C  0.59742493  0.71656112  0.40513310     0.06100
C1099       C  0.64464545  0.74003443  0.40108370    -0.09800
C1100       C  0.66288268  0.77106923  0.38420675    -0.11500
C1101       C  0.63433142  0.77914669  0.37093983    -0.01300
C1102       C  0.58737105  0.75647375  0.37510851    -0.10400
C1103       C  0.57745689  0.68169245  0.42242744     0.06100
H1104       H  0.66754681  0.73443367  0.41097320     0.08000
H1105       H  0.69926000  0.78835069  0.38127557     0.11500
H1106       H  0.56471718  0.76184901  0.36490784     0.11800
H1107       H  0.53253171  0.70759382  0.39436656     0.08100
C1108       C  0.53998270  0.67646143  0.43435133    -0.11100
C1109       C  0.51846158  0.64096954  0.44910509    -0.10400
C1110       C  0.53405740  0.61004716  0.45244995    -0.01300
C1111       C  0.57256459  0.61621890  0.44124556    -0.11400
C1112       C  0.59411823  0.65171277  0.42643302    -0.09900
H1113       H  0.52663621  0.69925030  0.43195942     0.08100
H1114       H  0.48837300  0.63644485  0.45732790     0.11800
H1115       H  0.58441889  0.59206706  0.44311710     0.11500
H1116       H  0.62242741  0.65421824  0.41735361     0.08000
C1117       C  0.76844599  0.81515164  0.27738444    -0.11000
C1118       C  0.73832527  0.78092832  0.26333831     0.06100
C1119       C  0.69112067  0.76036964  0.26690547    -0.09800
C1120       C  0.67446957  0.77371711  0.28415941    -0.11500
C1121       C  0.70471812  0.80778843  0.29808363    -0.01300
C1122       C  0.75175964  0.82850009  0.29457728    -0.10400
C1123       C  0.75653306  0.76588276  0.24555711     0.06100
H1124       H  0.66713260  0.73420063  0.25628033     0.08000
H1125       H  0.63800557  0.75771487  0.28662023     0.11500
H1126       H  0.77547840  0.85481579  0.30523737     0.11800
H1127       H  0.80499564  0.83104948  0.27529584     0.08100
C1128       C  0.79444082  0.79803473  0.23386500    -0.11100
C1129       C  0.81551773  0.78381947  0.21911479    -0.10400
C1130       C  0.79903050  0.73722034  0.21566997    -0.01300
C1131       C  0.75966425  0.70497441  0.22640053    -0.11400
C1132       C  0.73842163  0.71919990  0.24117432    -0.09900
H1133       H  0.80869467  0.83421091  0.23663401     0.08100
H1134       H  0.84610668  0.80916310  0.21110032     0.11800
H1135       H  0.74697207  0.66886306  0.22423159     0.11500
H1136       H  0.70947155  0.69363721  0.25004778     0.08000
C1137       C  0.29496085  0.99752564  0.34871313    -0.11000
C1138       C  0.33677983  0.00087640  0.34316387     0.06100
C1139       C  0.33661085  0.96217665  0.33490377    -0.09800
C1140       C  0.29556481  0.92126569  0.33211344    -0.11500
C1141       C  0.25410557  0.91837668  0.33754577    -0.01300
C1142       C  0.25398960  0.95659558  0.34593257    -0.10400
C1143       C  0.38019729  0.04497871  0.34523173     0.06100
H1144       H  0.36812417  0.96378497  0.33019585     0.08000
H1145       H  0.29603461  0.89184816  0.32568763     0.11500
H1146       H  0.22214890  0.95459689  0.35037737     0.11800
H1147       H  0.29395480  0.02648275  0.35535325     0.08100
C1148       C  0.38203867  0.08603544  0.33962651    -0.11100
C1149       C  0.42333095  0.12724985  0.34009002    -0.10400
C1150       C  0.46393157  0.12846665  0.34608380    -0.01300
C1151       C  0.46184730  0.08763273  0.35244332    -0.11400
C1152       C  0.42042979  0.04635171  0.35202394    -0.09900
H1153       H  0.35182193  0.08613140  0.33408101     0.08100
H1154       H  0.42364714  0.15792990  0.33495004     0.11800
H1155       H  0.49244048  0.08731217  0.35715140     0.11500
H1156       H  0.41998368  0.01539397  0.35677363     0.08000
C1157       C  0.03929705  0.66532883  0.32537553    -0.11000
C1158       C  0.99890219  0.66664260  0.32156390     0.06100
C1159       C  0.00182700  0.70965212  0.32090555    -0.09800
C1160       C  0.04317104  0.74960840  0.32454848    -0.11500
C1161       C  0.08330711  0.74810160  0.32787911    -0.01300
C1162       C  0.08106452  0.70561993  0.32815514    -0.10400
C1163       C  0.95381759  0.62365309  0.31904318     0.06100
H1164       H  0.97232601  0.71289830  0.31742606     0.08000
H1165       H  0.04400752  0.78198055  0.32439592     0.11500
H1166       H  0.11169206  0.70364957  0.33053426     0.11800
H1167       H  0.03886915  0.63326901  0.32651595     0.08100
C1168       C  0.95085201  0.58294008  0.31158767    -0.11100
C1169       C  0.90882696  0.54217071  0.31091963    -0.10400
C1170       C  0.86860858  0.54148963  0.31694872    -0.01300
C1171       C  0.87108480  0.58227732  0.32340267    -0.11400
C1172       C  0.91304407  0.62252791  0.32478741    -0.09900
H1173       H  0.98092383  0.58220212  0.30643150     0.08100
H1174       H  0.90779568  0.51110674  0.30586359     0.11800
H1175       H  0.84071540  0.58258299  0.32854622     0.11500
H1176       H  0.91325729  0.65222603  0.33119896     0.08000
C1177       C  0.04254783  0.63946956  0.42064589    -0.11000
C1178       C  0.08914999  0.67146465  0.41822668     0.06100
C1179       C  0.12098346  0.66925621  0.43174565    -0.09800
C1180       C  0.10684335  0.63414573  0.44655686    -0.11500
C1181       C  0.06067093  0.60081493  0.44815363    -0.01300
C1182       C  0.02840117  0.60415018  0.43548331    -0.10400
C1183       C  0.10514652  0.70481808  0.40061662     0.06100
H1184       H  0.15701380  0.69386939  0.43035210     0.08000
H1185       H  0.13214247  0.63166689  0.45610529     0.11500
H1186       H  0.99272643  0.57813230  0.43630864     0.11800
H1187       H  0.01744480  0.64030358  0.41027867     0.08100
C1188       C  0.08360859  0.73009479  0.39602822    -0.11100
C1189       C  0.09931643  0.76155002  0.37931641    -0.10400
C1190       C  0.13637757  0.76767772  0.36692926    -0.01300
C1191       C  0.15723669  0.74180852  0.37118965    -0.11400
C1192       C  0.14193716  0.71081077  0.38796608    -0.09900
H1193       H  0.05513703  0.72594948  0.40554033     0.08100
H1194       H  0.08274792  0.78118267  0.37604258     0.11800
H1195       H  0.18515801  0.74543309  0.36140921     0.11500
H1196       H  0.15841773  0.69095417  0.39086570     0.08000
C1197       C  0.24783827  0.89351431  0.40516653    -0.11000
C1198       C  0.28060398  0.87978053  0.40717048     0.06100
C1199       C  0.28310470  0.85194242  0.39124902    -0.09800
C1200       C  0.25441305  0.83905477  0.37354684    -0.11500
C1201       C  0.22200210  0.85295372  0.37153765    -0.01300
C1202       C  0.21859525  0.87997341  0.38752813    -0.10400
C1203       C  0.31439550  0.89657352  0.42485487     0.06100
H1204       H  0.30860405  0.84162878  0.39203745     0.08000
H1205       H  0.25827351  0.81918085  0.36110320     0.11500
H1206       H  0.19411249  0.89150420  0.38604574     0.11800
H1207       H  0.24513443  0.91498661  0.41713362     0.08100
C1208       C  0.32756906  0.86736888  0.43436178    -0.11100
C1209       C  0.36504858  0.88465490  0.44805559    -0.10400
C1210       C  0.39011777  0.93148060  0.45263543    -0.01300
C1211       C  0.37515690  0.96028217  0.44439637    -0.11400
C1212       C  0.33742151  0.94292820  0.43070170    -0.09900
H1213       H  0.31010727  0.83141184  0.43043935     0.08100
H1214       H  0.37619743  0.86189568  0.45412369     0.11800
H1215       H  0.39445095  0.99661773  0.44743126     0.11500
H1216       H  0.32830810  0.96634583  0.42353499     0.08000
C1217       C  0.06343661  0.82407585  0.27206913    -0.11000
C1218       C  0.05594158  0.78728820  0.25896056     0.06100
C1219       C  0.08087362  0.76503576  0.26291844    -0.09800
C1220       C  0.11140619  0.77832765  0.27999456    -0.11500
C1221       C  0.11745863  0.81398825  0.29343496    -0.01300
C1222       C  0.09385340  0.83724577  0.28911230    -0.10400
C1223       C  0.02002704  0.77062990  0.24223752     0.06100
H1224       H  0.07622217  0.73688723  0.25302231     0.08000
H1225       H  0.12919572  0.75984536  0.28318855     0.11500
H1226       H  0.09726611  0.86413026  0.29958613     0.11800
H1227       H  0.04419433  0.84138539  0.26978539     0.08100
C1228       C  0.99034230  0.72355982  0.23918209    -0.11100
C1229       C  0.95278585  0.70802986  0.22553408    -0.10400
C1230       C  0.94440474  0.73926189  0.21466634    -0.01300
C1231       C  0.97508325  0.78610713  0.21690307    -0.11400
C1232       C  0.01264477  0.80164960  0.23044556    -0.09900
H1233       H  0.99465313  0.69875400  0.24821263     0.08100
H1234       H  0.92900570  0.67176617  0.22427023     0.11800
H1235       H  0.96891110  0.81068992  0.20874988     0.11500
H1236       H  0.03520607  0.83804918  0.23215816     0.08000
C1237       C  0.93399415  0.32595778  0.09524316    -0.11000
C1238       C  0.91442799  0.35311818  0.09080084     0.06100
C1239       C  0.87539134  0.34550050  0.10196142    -0.09800
C1240       C  0.85450226  0.30945593  0.11636767    -0.11500
C1241       C  0.87218409  0.28034019  0.11974885    -0.01300
C1242       C  0.91278225  0.28951883  0.10956345    -0.10400
C1243       C  0.93095031  0.38526057  0.07273951     0.06100
H1244       H  0.85986728  0.36613268  0.09874029     0.08000
H1245       H  0.82289833  0.30248081  0.12390327     0.11500
H1246       H  0.92633715  0.26681198  0.11167121     0.11800
H1247       H  0.96383370  0.33104258  0.08659216     0.08100
C1248       C  0.97651094  0.42058386  0.07155775    -0.11100
C1249       C  0.99173078  0.44962171  0.05388690    -0.10400
C1250       C  0.96185588  0.44274023  0.03701001    -0.01300
C1251       C  0.91643597  0.40743712  0.03817870    -0.11400
C1252       C  0.90094206  0.37924962  0.05602806    -0.09900
H1253       H  0.00014059  0.42558943  0.08426904     0.08100
H1254       H  0.02700463  0.47662823  0.05306387     0.11800
H1255       H  0.89320370  0.40147646  0.02514253     0.11500
H1256       H  0.86580225  0.35183268  0.05654649     0.08000
C1257       C  0.58603114  0.03345039  0.07045704    -0.11000
C1258       C  0.62993470  0.07084579  0.06726242     0.06100
C1259       C  0.64127717  0.09289450  0.04744698    -0.09800
C1260       C  0.60954302  0.07756015  0.03099211    -0.11500
C1261       C  0.56621040  0.03927586  0.03388062    -0.01300
C1262       C  0.55449343  0.01742001  0.05376346    -0.10400
C1263       C  0.66452850  0.08729623  0.08428925     0.06100
H1264       H  0.67473177  0.12226591  0.04475445     0.08000
H1265       H  0.61893013  0.09524127  0.01587553     0.11500
H1266       H  0.52121102  0.98767619  0.05623496     0.11800
H1267       H  0.57665047  0.01603786  0.08563895     0.08100
C1268       C  0.65525689  0.09865502  0.10443183    -0.11100
C1269       C  0.69043271  0.12071039  0.11929633    -0.10400
C1270       C  0.73488875  0.13087226  0.11421482    -0.01300
C1271       C  0.74344170  0.11714570  0.09457909    -0.11400
C1272       C  0.70857146  0.09554442  0.07973405    -0.09900
H1273       H  0.62152988  0.09279402  0.10818172     0.08100
H1274       H  0.68352982  0.13172723  0.13429842     0.11800
H1275       H  0.77767259  0.12506504  0.09040260     0.11500
H1276       H  0.71630809  0.08666759  0.06436620     0.08000
C1277       C  0.74493302  0.03183107  0.25073034    -0.11000
C1278       C  0.74634316  0.99219864  0.24577162     0.06100
C1279       C  0.76412278  0.98898902  0.22610962    -0.09800
C1280       C  0.78337522  0.02646139  0.21225200    -0.11500
C1281       C  0.78431577  0.06703567  0.21787106    -0.01300
C1282       C  0.76365903  0.06890695  0.23685642    -0.10400
C1283       C  0.73396077  0.95695723  0.26225135     0.06100
H1284       H  0.76570810  0.95870588  0.22213268     0.08000
H1285       H  0.79997828  0.02483925  0.19784063     0.11500
H1286       H  0.76469165  0.10018618  0.24154325     0.11800
H1287       H  0.73125725  0.03480265  0.26582904     0.08100
C1288       C  0.75812480  0.96881434  0.28149403    -0.11100
C1289       C  0.74456574  0.93743286  0.29810087    -0.10400
C1290       C  0.70583193  0.89410317  0.29595860    -0.01300
C1291       C  0.68266774  0.88148516  0.27641820    -0.11400
C1292       C  0.69697405  0.91266173  0.25953868    -0.09900
H1293       H  0.78700080  0.00277296  0.28377996     0.08100
H1294       H  0.76308307  0.94755999  0.31298532     0.11800
H1295       H  0.65255696  0.84823579  0.27454299     0.11500
H1296       H  0.67801745  0.90300992  0.24476970     0.08000
C1297       C  0.47133081  0.33951469  0.09908788    -0.11000
C1298       C  0.43837653  0.34477303  0.08786073     0.06100
C1299       C  0.39206525  0.31654512  0.09302569    -0.09800
C1300       C  0.37888682  0.28202903  0.10824067    -0.11500
C1301       C  0.41181028  0.27552976  0.11868779    -0.01300
C1302       C  0.45815686  0.30518382  0.11432852    -0.10400
C1303       C  0.45214522  0.37749255  0.06990532     0.06100
H1304       H  0.36592161  0.31954833  0.08449144     0.08000
H1305       H  0.34292838  0.25885042  0.11103801     0.11500
H1306       H  0.48402736  0.30038866  0.12207265     0.11800
H1307       H  0.50727276  0.36119474  0.09565315     0.08100
C1308       C  0.48493800  0.38084479  0.05516897    -0.11100
C1309       C  0.49727237  0.41068039  0.03791162    -0.10400
C1310       C  0.47714469  0.43772288  0.03511934    -0.01300
C1311       C  0.44467250  0.43481792  0.04980941    -0.11400
C1312       C  0.43203454  0.40471789  0.06701567    -0.09900
H1313       H  0.50045974  0.35976174  0.05678513     0.08100
H1314       H  0.52234505  0.41256896  0.02664919     0.11800
H1315       H  0.42924450  0.45593162  0.04795042     0.11500
H1316       H  0.40694150  0.40306339  0.07818861     0.08000
C1317       C  0.48866924  0.09985033  0.05880778    -0.11000
C1318       C  0.45271256  0.06951313  0.07210949     0.06100
C1319       C  0.43040087  0.02261705  0.06740929    -0.09800
C1320       C  0.44357337  0.00661855  0.04978925    -0.11500
C1321       C  0.47906014  0.03718289  0.03645236    -0.01300
C1322       C  0.50166541  0.08384515  0.04119264    -0.10400
C1323       C  0.43776145  0.08739364  0.09021099     0.06100
H1324       H  0.40285388  0.99831884  0.07738004     0.08000
H1325       H  0.42587999  0.97040760  0.04642853     0.11500
H1326       H  0.52885975  0.10795492  0.03099623     0.11800
H1327       H  0.50602679  0.13623498  0.06167442     0.08100
C1328       C  0.47011004  0.12434857  0.10235090    -0.11100
C1329       C  0.45629042  0.14564406  0.11722462    -0.10400
C1330       C  0.40981829  0.13034696  0.12045898    -0.01300
C1331       C  0.37729252  0.09167895  0.10937004    -0.11400
C1332       C  0.39111941  0.07025900  0.09443910    -0.09900
H1333       H  0.50624633  0.13786113  0.09981167     0.08100
H1334       H  0.48196506  0.17568365  0.12544673     0.11800
H1335       H  0.34129388  0.07987066  0.11128224     0.11500
H1336       H  0.36529667  0.04209498  0.08527894     0.08000
C1337       C  0.29161428  0.02407968  0.24242606    -0.11000
C1338       C  0.24552711  0.99709940  0.24809596     0.06100
C1339       C  0.21275116  0.00438826  0.23805043    -0.09800
C1340       C  0.22596194  0.03935268  0.22320184    -0.11500
C1341       C  0.27223830  0.06797712  0.21829216    -0.01300
C1342       C  0.30496321  0.05967631  0.22777741    -0.10400
C1343       C  0.23166699  0.96382180  0.26562457     0.06100
H1344       H  0.17701032  0.98375233  0.24215915     0.08000
H1345       H  0.20024508  0.04541551  0.21619897     0.11500
H1346       H  0.34091146  0.08199996  0.22457317     0.11800
H1347       H  0.31740229  0.01914910  0.25016081     0.08100
C1348       C  0.24240185  0.92880872  0.26529468    -0.11100
C1349       C  0.22741288  0.89657140  0.28169946    -0.10400
C1350       C  0.20231011  0.89961935  0.29869941    -0.01300
C1351       C  0.19265530  0.93523856  0.29931270    -0.11400
C1352       C  0.20692076  0.96692146  0.28280880    -0.09900
H1353       H  0.26148434  0.92594506  0.25216695     0.08100
H1354       H  0.23517481  0.86921374  0.28114756     0.11800
H1355       H  0.17353825  0.93804981  0.31244404     0.11500
H1356       H  0.19877858  0.99401690  0.28345384     0.08000
C1357       C  0.41858880  0.37049823  0.32916165    -0.11000
C1358       C  0.37787305  0.33387647  0.32126381     0.06100
C1359       C  0.37936965  0.29700821  0.31175682    -0.09800
C1360       C  0.42019854  0.29599526  0.31100531    -0.11500
C1361       C  0.46053529  0.33210887  0.31949160    -0.01300
C1362       C  0.45936971  0.36977938  0.32814410    -0.10400
C1363       C  0.33400242  0.33366671  0.32370413     0.06100
H1364       H  0.34887701  0.26865115  0.30509796     0.08000
H1365       H  0.41997641  0.26654251  0.30418382     0.11500
H1366       H  0.48965510  0.39801721  0.33503434     0.11800
H1367       H  0.41877458  0.39911393  0.33690509     0.08100
C1368       C  0.33275089  0.37454478  0.32234230    -0.11100
C1369       C  0.29194942  0.37462031  0.32541919    -0.10400
C1370       C  0.25151563  0.33381161  0.32961559    -0.01300
C1371       C  0.25232217  0.29293351  0.33093313    -0.11400
C1372       C  0.29321835  0.29284979  0.32810884    -0.09900
H1373       H  0.36320131  0.40648197  0.31862621     0.08100
H1374       H  0.29164354  0.40635290  0.32409554     0.11800
H1375       H  0.22122717  0.26113785  0.33411730     0.11500
H1376       H  0.29295782  0.26089940  0.32968212     0.08000
C1377       C  0.00514407  0.30171360  0.35317466    -0.11000
C1378       C  0.99887619  0.33478614  0.34262891     0.06100
C1379       C  0.03382196  0.36645669  0.32930903    -0.09800
C1380       C  0.07416655  0.36521636  0.32667123    -0.11500
C1381       C  0.08035846  0.33240654  0.33734294    -0.01300
C1382       C  0.04560501  0.30063311  0.35058363    -0.10400
C1383       C  0.95573182  0.33580359  0.34500486     0.06100
H1384       H  0.02969177  0.39185167  0.32069949     0.08000
H1385       H  0.10072142  0.38999176  0.31641870     0.11500
H1386       H  0.04995256  0.27509639  0.35893861     0.11800
H1387       H  0.97898553  0.27705882  0.36361198     0.08100
C1388       C  0.91330139  0.29528543  0.34428293    -0.11100
C1389       C  0.87271157  0.29672123  0.34425953    -0.10400
C1390       C  0.87368207  0.33871137  0.34510298    -0.01300
C1391       C  0.91608962  0.37901249  0.34702601    -0.11400
C1392       C  0.95661619  0.37756798  0.34691007    -0.09900
H1393       H  0.91151924  0.26258824  0.34275828     0.08100
H1394       H  0.84065086  0.26501966  0.34282968     0.11800
H1395       H  0.91814394  0.41193045  0.34778822     0.11500
H1396       H  0.98878185  0.40927558  0.34790606     0.08000
C1397       C  0.13457323  0.46414712  0.43226493    -0.11000
C1398       C  0.10472695  0.42111972  0.42360181     0.06100
C1399       C  0.05892950  0.39789789  0.43026237    -0.09800
C1400       C  0.04261033  0.41886533  0.44415722    -0.11500
C1401       C  0.07210154  0.46292243  0.45197254    -0.01300
C1402       C  0.11850444  0.48466361  0.44639280    -0.10400
C1403       C  0.12032849  0.40290344  0.40608777     0.06100
H1404       H  0.03517438  0.36484129  0.42364581     0.08000
H1405       H  0.00653819  0.40183672  0.44781567     0.11500
H1406       H  0.14183932  0.51877899  0.45207541     0.11800
H1407       H  0.17006171  0.48260614  0.42748970     0.08100
C1408       C  0.14296483  0.43070746  0.38848018    -0.11100
C1409       C  0.15520666  0.41329201  0.37118190    -0.10400
C1410       C  0.14574069  0.36802171  0.37131256    -0.01300
C1411       C  0.12429763  0.34042272  0.38907663    -0.11400
C1412       C  0.11122065  0.35760453  0.40627388    -0.09900
H1413       H  0.14987192  0.46555284  0.38782076     0.08100
H1414       H  0.17139331  0.43485558  0.35749792     0.11800
H1415       H  0.11662776  0.30531501  0.38933103     0.11500
H1416       H  0.09387366  0.33556840  0.41966948     0.08000
C1417       C  0.32510244  0.45711360  0.43264504    -0.11000
C1418       C  0.32257273  0.42080683  0.42076437     0.06100
C1419       C  0.35293566  0.40506287  0.42535148    -0.09800
C1420       C  0.38706074  0.42715650  0.44063193    -0.11500
C1421       C  0.39097454  0.46495404  0.45165591    -0.01300
C1422       C  0.35909422  0.47906648  0.44793025    -0.10400
C1423       C  0.29070171  0.40194320  0.40259915     0.06100
H1424       H  0.35190712  0.37738979  0.41629271     0.08000
H1425       H  0.41198118  0.41643697  0.44300536     0.11500
H1426       H  0.36192577  0.50846318  0.45615434     0.11800
H1427       H  0.30168267  0.46946299  0.42959309     0.08100
C1428       C  0.28694509  0.43164435  0.38819155    -0.11100
C1429       C  0.25715371  0.41442122  0.37097395    -0.10400
C1430       C  0.23051716  0.36727476  0.36793613    -0.01300
C1431       C  0.23450013  0.33740199  0.38204128    -0.11400
C1432       C  0.26458674  0.35463696  0.39924982    -0.09900
H1433       H  0.30738667  0.46825393  0.39016104     0.08100
H1434       H  0.25458117  0.43779280  0.36006643     0.11800
H1435       H  0.21398023  0.30086540  0.37982056     0.11500
H1436       H  0.26690999  0.33109511  0.41013137     0.08000
C1437       C  0.95561505  0.24601546  0.25624362    -0.11000
C1438       C  0.99879587  0.25366327  0.25030664     0.06100
C1439       C  0.00580109  0.24327187  0.22953963    -0.09800
C1440       C  0.96918142  0.22277005  0.21531658    -0.11500
C1441       C  0.92556233  0.21322142  0.22169100    -0.01300
C1442       C  0.91931008  0.22601885  0.24203301    -0.10400
C1443       C  0.03499267  0.26888018  0.26645705     0.06100
H1444       H  0.03888607  0.24873333  0.22475330     0.08000
H1445       H  0.97429916  0.21236517  0.19976959     0.11500
H1446       H  0.88574842  0.21851188  0.24721854     0.11800
H1447       H  0.94969980  0.25416380  0.27214868     0.08100
C1448       C  0.02578994  0.24506054  0.28576169    -0.11100
C1449       C  0.05872384  0.26003749  0.30166714    -0.10400
C1450       C  0.10110673  0.29947323  0.29865528    -0.01300
C1451       C  0.11086887  0.32285710  0.27919780    -0.11400
C1452       C  0.07805245  0.30738501  0.26307494    -0.09900
H1453       H  0.99295186  0.21488508  0.28853143     0.08100
H1454       H  0.05096235  0.24132450  0.31649187     0.11800
H1455       H  0.14351792  0.35341859  0.27668521     0.11500
H1456       H  0.08569287  0.32612396  0.24826428     0.08000
C1457       C  0.23958603  0.31641711  0.26465909    -0.11000
C1458       C  0.21723772  0.26970924  0.25966975     0.06100
C1459       C  0.17883967  0.23940271  0.27173122    -0.09800
C1460       C  0.16456908  0.25518536  0.28901856    -0.11500
C1461       C  0.18812946  0.30158482  0.29444034    -0.01300
C1462       C  0.22494804  0.33221140  0.28176600    -0.10400
C1463       C  0.23582844  0.25214794  0.24305576     0.06100
H1464       H  0.16113506  0.20317531  0.26841650     0.08000
H1465       H  0.13616020  0.23100772  0.29863425     0.11500
H1466       H  0.24321169  0.36823233  0.28554539     0.11800
H1467       H  0.26887220  0.34063606  0.25551905     0.08100
C1468       C  0.28290431  0.26762914  0.24220108    -0.11100
C1469       C  0.29998994  0.24726089  0.22842789    -0.10400
C1470       C  0.27040649  0.21128390  0.21514276    -0.01300
C1471       C  0.22370833  0.19715145  0.21525453    -0.11400
C1472       C  0.20657150  0.21742923  0.22903690    -0.09900
H1473       H  0.30622039  0.29379782  0.25302530     0.08100
H1474       H  0.33589723  0.25781123  0.22898889     0.11800
H1475       H  0.20022992  0.16888090  0.20537947     0.11500
H1476       H  0.17024989  0.20502467  0.22920712     0.08000
loop_ 
_geom_bond_atom_site_label_1 
_geom_bond_atom_site_label_2 
_geom_bond_distance 
_geom_bond_site_symmetry_2 
_ccdc_geom_bond_type 
C1            C2   1.415       .  A
C1            C6   1.413       .  A
C1         C1370   1.483       .  S
C2            C3   1.415       .  A
C2         C1461   1.493       .  S
C3            C4   1.417       .  A
C3         C1450   1.480       .  S
C4            C5   1.411       .  A
C4         C1381   1.487       .  S
C5            C6   1.411       .  A
C5         C1410   1.487       .  S
C6         C1430   1.478       .  S
C7            C8   1.399       .  A
C7           C12   1.416       .  A
C7         C1341   1.483       .  S
C8            C9   1.395       .  A
C8           H27   1.086       .  S
C9           C10   1.417       .  A
C9         C1470   1.485       .  S
C10          C11   1.424       .  A
C10          C17   1.404       .  A
C11          C12   1.421       .  A
C11          C16   1.423       .  A
C12          C13   1.407       .  A
C13          C14   1.394       .  A
C13          H23   1.082       .  S
C14          C15   1.404       .  A
C14          H24   1.082       .  S
C15          C16   1.425       .  A
C15          C22   1.417       .  A
C16          C19   1.421       .  A
C17          C18   1.395       .  A
C17          H25   1.083       .  S
C18          C19   1.407       .  A
C18          H26   1.082       .  S
C19          C20   1.415       .  A
C20          C21   1.398       .  A
C20        C1301   1.482       .  S
C21          C22   1.397       .  A
C21          H28   1.086       .  S
C22        C1330   1.489       .  S
C29          C30   1.395       .  A
C29          C34   1.412       .  A
C29        C1281   1.478       .  S
C30          C31   1.395       .  A
C30          H49   1.086       .  S
C31          C32   1.412       .  A
C31        C1441   1.476       .  S
C32          C33   1.420       .  A
C32          C39   1.406       .  A
C33          C34   1.422       .  A
C33          C38   1.418       .  A
C34          C35   1.404       .  A
C35          C36   1.393       .  A
C35          H45   1.083       .  S
C36          C37   1.406       .  A
C36          H46   1.082       .  S
C37          C38   1.420       .  A
C37          C44   1.412       .  A
C38          C41   1.422       .  A
C39          C40   1.393       .  A
C39          H47   1.082       .  S
C40          C41   1.404       .  A
C40          H48   1.082       .  S
C41          C42   1.413       .  A
C42          C43   1.396       .  A
C42        C1241   1.479       .  S
C43          C44   1.396       .  A
C43          H50   1.086       .  S
C44        C1270   1.476       .  S
C51          C52   1.418       .  A
C51          C56   1.417       .  A
C51        C1161   1.493       .  S
C52          C53   1.413       .  A
C52        C1221   1.489       .  S
C53          C54   1.411       .  A
C53        C1350   1.478       .  S
C54          C55   1.410       .  A
C54        C1141   1.482       .  S
C55          C56   1.414       .  A
C55        C1201   1.488       .  S
C56        C1190   1.477       .  S
C57          C58   1.415       .  A
C57          C62   1.418       .  A
C57        C1070   1.481       .  S
C58          C59   1.410       .  A
C58        C1121   1.483       .  S
C59          C60   1.413       .  A
C59        C1290   1.487       .  S
C60          C61   1.415       .  A
C60        C1041   1.485       .  S
C61          C62   1.415       .  A
C61        C1090   1.484       .  S
C62        C1101   1.492       .  S
C63          C64   1.398       .  A
C63          C68   1.416       .  A
C63        C1130   1.482       .  S
C64          C65   1.396       .  A
C64          H83   1.086       .  S
C65          C66   1.414       .  A
C65        C1230   1.482       .  S
C66          C67   1.423       .  A
C66          C73   1.405       .  A
C67          C68   1.421       .  A
C67          C72   1.421       .  A
C68          C69   1.406       .  A
C69          C70   1.396       .  A
C69          H79   1.082       .  S
C70          C71   1.405       .  A
C70          H80   1.082       .  S
C71          C72   1.423       .  A
C71          C78   1.417       .  A
C72          C75   1.421       .  A
C73          C74   1.392       .  A
C73          H81   1.082       .  S
C74          C75   1.405       .  A
C74          H82   1.083       .  S
C75          C76   1.411       .  A
C76          C77   1.395       .  A
C76        C1001   1.476       .  S
C77          C78   1.397       .  A
C77          H84   1.086       .  S
C78        C1030   1.483       .  S
C85          C86   1.418   1_556  A
C85          C90   1.413   1_545  A
C85         C921   1.489       .  S
C86          C87   1.416       .  A
C86        C1261   1.485       .  S
C87          C88   1.416   1_554  A
C87        C1321   1.492       .  S
C88          C89   1.416   1_545  A
C88         C941   1.482   1_556  S
C89          C90   1.414       .  A
C89         C970   1.486       .  S
C90         C981   1.486       .  S
C91          C92   1.415   1_556  A
C91          C96   1.413       .  A
C91         C861   1.483   1_556  S
C92          C93   1.411       .  A
C92        C1021   1.486       .  S
C93          C94   1.412   1_554  A
C93        C1310   1.481       .  S
C94          C95   1.414       .  A
C94         C850   1.480       .  S
C95          C96   1.410       .  A
C95         C910   1.486       .  S
C96         C890   1.479       .  S
C97          C98   1.409       .  A
C97         C102   1.411   1_654  A
C97         C770   1.486       .  S
C98          C99   1.411       .  A
C98        C1250   1.483       .  S
C99         C100   1.418   1_554  A
C99        C1010   1.482       .  S
C100        C101   1.421   1_655  A
C100        C781   1.494       .  S
C101        C102   1.416       .  A
C101        C801   1.491       .  S
C102        C821   1.479       .  S
C103        C104   1.418       .  A
C103        C108   1.416       .  A
C103        C650   1.486       .  S
C104        C105   1.415       .  A
C104        C750   1.493       .  S
C105        C106   1.417       .  A
C105        C721   1.485       .  S
C106        C107   1.411       .  A
C106        C661   1.484       .  S
C107        C108   1.409       .  A
C107        C690   1.489       .  S
C108        C701   1.480       .  S
C109        C110   1.396       .  A
C109        C114   1.415       .  A
C109        C901   1.485       .  S
C110        C111   1.398       .  A
C110        H129   1.086       .  S
C111        C112   1.415       .  A
C111        C830   1.482       .  S
C112        C113   1.421       .  A
C112        C119   1.407       .  A
C113        C114   1.424       .  A
C113        C118   1.420       .  A
C114        C115   1.404       .  A
C115        C116   1.392       .  A
C115        H125   1.082       .  S
C116        C117   1.405       .  A
C116        H126   1.083       .  S
C117        C118   1.419       .  A
C117        C124   1.410       .  A
C118        C121   1.424       .  A
C119        C120   1.394       .  A
C119        H127   1.081       .  S
C120        C121   1.404       .  A
C120        H128   1.082       .  S
C121        C122   1.417       .  A
C122        C123   1.397       .  A
C122        C630   1.485       .  S
C123        C124   1.394       .  A
C123        H130   1.086       .  S
C124        C710   1.473       .  S
C131        C132   1.399       .  A
C131        C136   1.415       .  A
C131        C961   1.482       .  S
C132        C133   1.398       .  A
C132        H151   1.085       .  S
C133        C134   1.415       .  A
C133        C810   1.483       .  S
C134        C135   1.422       .  A
C134        C141   1.405       .  A
C135        C136   1.420       .  A
C135        C140   1.422       .  A
C136        C137   1.406       .  A
C137        C138   1.394       .  A
C137        H147   1.082       .  S
C138        C139   1.405       .  A
C138        H148   1.082       .  S
C139        C140   1.423       .  A
C139        C146   1.417       .  A
C140        C143   1.421       .  A
C141        C142   1.393       .  A
C141        H149   1.082       .  S
C142        C143   1.406       .  A
C142        H150   1.082       .  S
C143        C144   1.414       .  A
C144        C145   1.398       .  A
C144        C601   1.482       .  S
C145        C146   1.398       .  A
C145        H152   1.086       .  S
C146        C681   1.488       .  S
C153        C154   1.409       .  A
C153        C158   1.411       .  A
C153        C521   1.485       .  S
C154        C155   1.412       .  A
C154        C621   1.485       .  S
C155        C156   1.417       .  A
C155        C541   1.479       .  S
C156        C157   1.418       .  A
C156        C501   1.493       .  S
C157        C158   1.416       .  A
C157        C570   1.490       .  S
C158        C581   1.476       .  S
C159        C160   1.416       .  A
C159        C164   1.414       .  A
C159        C430   1.486       .  S
C160        C161   1.414       .  A
C160        C441   1.491       .  S
C161        C162   1.416       .  A
C161        C610   1.481       .  S
C162        C163   1.416       .  A
C162        C410   1.487       .  S
C163        C164   1.413       .  A
C163        C481   1.490       .  S
C164        C461   1.481       .  S
C165        C166   1.396       .  A
C165        C170   1.413       .  A
C165        C881   1.479       .  S
C166        C167   1.399       .  A
C166        H185   1.086       .  S
C167        C168   1.418       .  A
C167        C990   1.489       .  S
C168        C169   1.424       .  A
C168        C175   1.406       .  A
C169        C170   1.420       .  A
C169        C174   1.421       .  A
C170        C171   1.407       .  A
C171        C172   1.394       .  A
C171        H181   1.082       .  S
C172        C173   1.404       .  A
C172        H182   1.082       .  S
C173        C174   1.424       .  A
C173        C180   1.416       .  A
C174        C177   1.420       .  A
C175        C176   1.394       .  A
C175        H183   1.082       .  S
C176        C177   1.406       .  A
C176        H184   1.082       .  S
C177        C178   1.413       .  A
C178        C179   1.396       .  A
C178        C550   1.476       .  S
C179        C180   1.395       .  A
C179        H186   1.086       .  S
C180        C450   1.483       .  S
C187        C188   1.397       .  A
C187        C192   1.419       .  A
C187       C1401   1.490       .  S
C188        C189   1.395       .  A
C188        H207   1.086       .  S
C189        C190   1.410       .  A
C189       C1181   1.474       .  S
C190        C191   1.419       .  A
C190        C197   1.406       .  A
C191        C192   1.425       .  A
C191        C196   1.421   1_455  A
C192        C193   1.404       .  A
C193        C194   1.394   1_455  A
C193        H203   1.081       .  S
C194        C195   1.406       .  A
C194        H204   1.082       .  S
C195        C196   1.420       .  A
C195        C202   1.414       .  A
C196        C199   1.424       .  A
C197        C198   1.393   1_455  A
C197        H205   1.082       .  S
C198        C199   1.404       .  A
C198        H206   1.082       .  S
C199        C200   1.415       .  A
C200        C201   1.394       .  A
C200        C490   1.483       .  S
C201        C202   1.397       .  A
C201        H208   1.086       .  S
C202        C590   1.479       .  S
C209        C210   1.397       .  A
C209        C214   1.413       .  A
C209       C1421   1.479       .  S
C210        C211   1.397       .  A
C210        H229   1.086       .  S
C211        C212   1.420       .  A
C211       C1110   1.489       .  S
C212        C213   1.425       .  A
C212        C219   1.405       .  A
C213        C214   1.420       .  A
C213        C218   1.423       .  A
C214        C215   1.407       .  A
C215        C216   1.393       .  A
C215        H225   1.082       .  S
C216        C217   1.404       .  A
C216        H226   1.082       .  S
C217        C218   1.424       .  A
C217        C224   1.416       .  A
C218        C221   1.421       .  A
C219        C220   1.396       .  A
C219        H227   1.082       .  S
C220        C221   1.407       .  A
C220        H228   1.082       .  S
C221        C222   1.417       .  A
C222        C223   1.399       .  A
C222        C470   1.484       .  S
C223        C224   1.395       .  A
C223        H230   1.086       .  S
C224        C741   1.486       .  S
C231        C232   1.397       .  A
C231        C236   1.417       .  A
C231       C1210   1.487       .  S
C232        C233   1.397       .  A
C232        H251   1.086       .  S
C233        C234   1.415       .  A
C233       C1081   1.482       .  S
C234        C235   1.421       .  A
C234        C241   1.407   1_565  A
C235        C236   1.424       .  A
C235        C240   1.422   1_565  A
C236        C237   1.404       .  A
C237        C238   1.394   1_565  A
C237        H247   1.082       .  S
C238        C239   1.407       .  A
C238        H248   1.082       .  S
C239        C240   1.421       .  A
C239        C246   1.415       .  A
C240        C243   1.424       .  A
C241        C242   1.394       .  A
C241        H249   1.082   1_545  S
C242        C243   1.404       .  A
C242        H250   1.083       .  S
C243        C244   1.416       .  A
C244        C245   1.395       .  A
C244        C561   1.485       .  S
C245        C246   1.398       .  A
C245        H252   1.086       .  S
C246        C730   1.481       .  S
O253       Mg255   2.144   1_455  S
O253       Mg261   2.149   1_554  S
O253        C288   1.235       .  S
C254        H293   1.081       .  S
C254        O267   1.235       .  S
C254        O291   1.269       .  A
Mg255       O284   2.157   1_554  S
Mg255       O299   2.311   1_554  S
Mg255       O295   2.258       .  S
Mg255       O266   2.298       .  S
O256       Mg298   2.164   1_554  S
O256       Mg281   2.156       .  S
O256        C277   1.236       .  S
O257        C288   1.269       .  A
O257       Mg281   2.297   1_565  S
C258        C930   1.484       .  S
C258        O260   1.272       .  A
C258        O272   1.275   1_565  A
O259        C287   1.269   1_455  A
O259       Mg261   2.296       .  S
O260       Mg292   2.267       .  S
Mg261       O267   2.141   1_565  S
Mg261       O275   2.258       .  S
Mg261       O263   2.288   1_556  S
C262        C761   1.485       .  S
C262        O300   1.271       .  A
C262        O268   1.277   1_655  A
O263        C270   1.274   1_565  A
H264        C277   1.081       .  S
C265        H290   1.081       .  S
C265        O279   1.236       .  S
C265        O280   1.270       .  A
O266        C289   1.270       .  A
O267       Mg281   2.159   1_556  S
O268       Mg298   2.315   1_554  S
C269        C841   1.481       .  S
C269        O282   1.273       .  A
C269        O274   1.275   1_556  A
C270        C950   1.484       .  S
C270        O297   1.274       .  A
Mg271       O278   2.143   1_545  S
Mg271       O279   2.152   1_554  S
Mg271       O272   2.308   1_554  S
Mg271       O273   2.302       .  S
Mg271       O300   2.256       .  S
O273        C277   1.270   1_655  A
O274       Mg281   2.294       .  S
O275        C294   1.271       .  A
O276        C296   1.275       .  A
O276       Mg292   2.303   1_554  S
O278       Mg292   2.152   1_554  S
O278        C289   1.235       .  S
O279       Mg298   2.149   1_655  S
O280       Mg292   2.304   1_545  S
Mg281       O297   2.280       .  S
O282       Mg298   2.265       .  S
H283        C288   1.081       .  S
O284       Mg292   2.145       .  S
O284        C287   1.235       .  S
H285        C287   1.081       .  S
H286        C289   1.081       .  S
O291       Mg298   2.298       .  S
C294        C790   1.479       .  S
C294        O299   1.275   1_455  A
O295        C296   1.272       .  A
C296        C870   1.482       .  S
O301       Mg303   2.151       .  S
O301       Mg309   2.157       .  S
O301        C336   1.236       .  S
C302        H341   1.081       .  S
C302        O315   1.236       .  S
C302        O339   1.270       .  A
Mg303       O332   2.162       .  S
Mg303       O347   2.304       .  S
Mg303       O343   2.267       .  S
Mg303       O314   2.295       .  S
O304       Mg346   2.149       .  S
O304       Mg329   2.146       .  S
O304        C325   1.235       .  S
O305        C336   1.270       .  A
O305       Mg329   2.301       .  S
C306       C1361   1.484       .  S
C306        O308   1.274       .  A
C306        O320   1.275       .  A
O307        C335   1.270       .  A
O307       Mg309   2.301       .  S
O308       Mg340   2.279       .  S
Mg309       O315   2.142       .  S
Mg309       O323   2.258       .  S
Mg309       O311   2.311       .  S
C310       C1061   1.482       .  S
C310        O348   1.273       .  A
C310        O316   1.274       .  A
O311        C318   1.276       .  A
H312        C325   1.081       .  S
C313        H338   1.081       .  S
C313        O327   1.235       .  S
C313        O328   1.269       .  A
O314        C337   1.269       .  A
O315       Mg329   2.150       .  S
O316       Mg346   2.290       .  S
C317       C1170   1.478       .  S
C317        O330   1.272       .  A
C317        O322   1.275       .  A
C318       C1390   1.485       .  S
C318        O345   1.272       .  A
Mg319       O326   2.141       .  S
Mg319       O327   2.162       .  S
Mg319       O320   2.292       .  S
Mg319       O321   2.296       .  S
Mg319       O348   2.271       .  S
O321        C325   1.269       .  A
O322       Mg329   2.317       .  S
O323        C342   1.272       .  A
O324        C344   1.276       .  A
O324       Mg340   2.302       .  S
O326       Mg340   2.161       .  S
O326        C337   1.235       .  S
O327       Mg346   2.143       .  S
O328       Mg340   2.295       .  S
Mg329       O345   2.262       .  S
O330       Mg346   2.258       .  S
H331        C336   1.081       .  S
O332       Mg340   2.150       .  S
O332        C335   1.236       .  S
H333        C335   1.081       .  S
H334        C337   1.081       .  S
O339       Mg346   2.299       .  S
C342       C1050   1.483       .  S
C342        O347   1.275       .  A
O343        C344   1.273       .  A
C344       C1150   1.484       .  S
O349       Mg351   2.146       .  S
O349       Mg357   2.166       .  S
O349        C384   1.236       .  S
C350        H389   1.081       .  S
C350        O363   1.235       .  S
C350        O387   1.270       .  A
Mg351       O380   2.158       .  S
Mg351       O395   2.289       .  S
Mg351       O391   2.270       .  S
Mg351       O362   2.295       .  S
O352       Mg394   2.149       .  S
O352       Mg377   2.137       .  S
O352        C373   1.235       .  S
O353        C384   1.270       .  A
O353       Mg377   2.297       .  S
C354        C670   1.480       .  S
C354        O356   1.272       .  A
C354        O368   1.275       .  A
O355        C383   1.269       .  A
O355       Mg357   2.295       .  S
O356       Mg388   2.254       .  S
Mg357       O363   2.150       .  S
Mg357       O371   2.274       .  S
Mg357       O359   2.297       .  S
C358        C401   1.482       .  S
C358        O396   1.273       .  A
C358        O364   1.274       .  A
O359        C366   1.275       .  A
H360        C373   1.081       .  S
C361        H386   1.081       .  S
C361        O375   1.235       .  S
C361        O376   1.269       .  A
O362        C385   1.269       .  A
O363       Mg377   2.161       .  S
O364       Mg394   2.293       .  S
C365        C530   1.483       .  S
C365        O378   1.272       .  A
C365        O370   1.276       .  A
C366        C641   1.478       .  S
C366        O393   1.271       .  A
Mg367       O374   2.150       .  S
Mg367       O375   2.163       .  S
Mg367       O368   2.299       .  S
Mg367       O369   2.294       .  S
Mg367       O396   2.272       .  S
O369        C373   1.269       .  A
O370       Mg377   2.318       .  S
O371        C390   1.273       .  A
O372        C392   1.276       .  A
O372       Mg388   2.308       .  S
O374       Mg388   2.159       .  S
O374        C385   1.235       .  S
O375       Mg394   2.139       .  S
O376       Mg388   2.294       .  S
Mg377       O393   2.252       .  S
O378       Mg394   2.258       .  S
H379        C384   1.081       .  S
O380       Mg388   2.139       .  S
O380        C383   1.235       .  S
H381        C383   1.081       .  S
H382        C385   1.081       .  S
O387       Mg394   2.300       .  S
C390        C421   1.481       .  S
C390        O395   1.274       .  A
O391        C392   1.273       .  A
C392        C510   1.486       .  S
C397        C398   1.407       .  A
C397        C402   1.395       .  A
C397        H407   1.082       .  S
C398        C399   1.409       .  A
C398        C403   1.493   1_455  S
C399        C400   1.401       .  A
C399        H404   1.082       .  S
C400        C401   1.405       .  A
C400        H405   1.083       .  S
C401        C402   1.405       .  A
C402        H406   1.083       .  S
C403        C408   1.409       .  A
C403        C412   1.410       .  A
C408        C409   1.396       .  A
C408        H413   1.082       .  S
C409        C410   1.401       .  A
C409        H414   1.083       .  S
C410        C411   1.401       .  A
C411        C412   1.399       .  A
C411        H415   1.083       .  S
C412        H416   1.082   1_655  S
C417        C418   1.409       .  A
C417        C422   1.401       .  A
C417        H427   1.082       .  S
C418        C419   1.406       .  A
C418        C423   1.490       .  S
C419        C420   1.395       .  A
C419        H424   1.082       .  S
C420        C421   1.405       .  A
C420        H425   1.083       .  S
C421        C422   1.405       .  A
C422        H426   1.083       .  S
C423        C428   1.409       .  A
C423        C432   1.408       .  A
C428        C429   1.398       .  A
C428        H433   1.082       .  S
C429        C430   1.401       .  A
C429        H434   1.083       .  S
C430        C431   1.401       .  A
C431        C432   1.395       .  A
C431        H435   1.083       .  S
C432        H436   1.082       .  S
C437        C438   1.407       .  A
C437        C442   1.398       .  A
C437        H447   1.083       .  S
C438        C439   1.406       .  A
C438        C443   1.486       .  S
C439        C440   1.400       .  A
C439        H444   1.083       .  S
C440        C441   1.404       .  A
C440        H445   1.083       .  S
C441        C442   1.402       .  A
C442        H446   1.082       .  S
C443        C448   1.405       .  A
C443        C452   1.408       .  A
C448        C449   1.398       .  A
C448        H453   1.083       .  S
C449        C450   1.403       .  A
C449        H454   1.083       .  S
C450        C451   1.403       .  A
C451        C452   1.401       .  A
C451        H455   1.083       .  S
C452        H456   1.083       .  S
C457        C458   1.406       .  A
C457        C462   1.395       .  A
C457        H467   1.083       .  S
C458        C459   1.405       .  A
C458        C463   1.482       .  S
C459        C460   1.399       .  A
C459        H464   1.083       .  S
C460        C461   1.402       .  A
C460        H465   1.083       .  S
C461        C462   1.400       .  A
C462        H466   1.083       .  S
C463        C468   1.404       .  A
C463        C472   1.406       .  A
C468        C469   1.395       .  A
C468        H473   1.083       .  S
C469        C470   1.404       .  A
C469        H474   1.083       .  S
C470        C471   1.404       .  A
C471        C472   1.400       .  A
C471        H475   1.083       .  S
C472        H476   1.083       .  S
C477        C478   1.408       .  A
C477        C482   1.398       .  A
C477        H487   1.083       .  S
C478        C479   1.406       .  A
C478        C483   1.489       .  S
C479        C480   1.400       .  A
C479        H484   1.083       .  S
C480        C481   1.403       .  A
C480        H485   1.083       .  S
C481        C482   1.402       .  A
C482        H486   1.082       .  S
C483        C488   1.408       .  A
C483        C492   1.406       .  A
C488        C489   1.401       .  A
C488        H493   1.083       .  S
C489        C490   1.403       .  A
C489        H494   1.083       .  S
C490        C491   1.404       .  A
C491        C492   1.398       .  A
C491        H495   1.083       .  S
C492        H496   1.083       .  S
C497        C498   1.410       .  A
C497        C502   1.400   1_565  A
C497        H507   1.082       .  S
C498        C499   1.409   1_565  A
C498        C503   1.497       .  S
C499        C500   1.397       .  A
C499        H504   1.082       .  S
C500        C501   1.402       .  A
C500        H505   1.082       .  S
C501        C502   1.403       .  A
C502        H506   1.083       .  S
C503        C508   1.409       .  A
C503        C512   1.408       .  A
C508        C509   1.401       .  A
C508        H513   1.082       .  S
C509        C510   1.406       .  A
C509        H514   1.083       .  S
C510        C511   1.406       .  A
C511        C512   1.398       .  A
C511        H515   1.083       .  S
C512        H516   1.082       .  S
C517        C518   1.408   1_655  A
C517        C522   1.398       .  A
C517        H527   1.082       .  S
C518        C519   1.410       .  A
C518        C523   1.492       .  S
C519        C520   1.399   1_455  A
C519        H524   1.082       .  S
C520        C521   1.400       .  A
C520        H525   1.083       .  S
C521        C522   1.401       .  A
C522        H526   1.083       .  S
C523        C528   1.407       .  A
C523        C532   1.409       .  A
C528        C529   1.397       .  A
C528        H533   1.082       .  S
C529        C530   1.405       .  A
C529        H534   1.083       .  S
C530        C531   1.406       .  A
C531        C532   1.401       .  A
C531        H535   1.083       .  S
C532        H536   1.082       .  S
C537        C538   1.405       .  A
C537        C542   1.397       .  A
C537        H547   1.083       .  S
C538        C539   1.407       .  A
C538        C543   1.480       .  S
C539        C540   1.394       .  A
C539        H544   1.083       .  S
C540        C541   1.400       .  A
C540        H545   1.083       .  S
C541        C542   1.402       .  A
C542        H546   1.083       .  S
C543        C548   1.405       .  A
C543        C552   1.406   1_545  A
C548        C549   1.394   1_545  A
C548        H553   1.083       .  S
C549        C550   1.402       .  A
C549        H554   1.083       .  S
C550        C551   1.402       .  A
C551        C552   1.398       .  A
C551        H555   1.083       .  S
C552        H556   1.083       .  S
C557        C558   1.409       .  A
C557        C562   1.402       .  A
C557        H567   1.083       .  S
C558        C559   1.407       .  A
C558        C563   1.492       .  S
C559        C560   1.399       .  A
C559        H564   1.083       .  S
C560        C561   1.403       .  A
C560        H565   1.083       .  S
C561        C562   1.403       .  A
C562        H566   1.083       .  S
C563        C568   1.408       .  A
C563        C572   1.408       .  A
C568        C569   1.398       .  A
C568        H573   1.083       .  S
C569        C570   1.402       .  A
C569        H574   1.083       .  S
C570        C571   1.403       .  A
C571        C572   1.401       .  A
C571        H575   1.083       .  S
C572        H576   1.083       .  S
C577        C578   1.405       .  A
C577        C582   1.394       .  A
C577        H587   1.083       .  S
C578        C579   1.404       .  A
C578        C583   1.475       .  S
C579        C580   1.399       .  A
C579        H584   1.083       .  S
C580        C581   1.402       .  A
C580        H585   1.083       .  S
C581        C582   1.399       .  A
C582        H586   1.083       .  S
C583        C588   1.402       .  A
C583        C592   1.405       .  A
C588        C589   1.392       .  A
C588        H593   1.083       .  S
C589        C590   1.402       .  A
C589        H594   1.083       .  S
C590        C591   1.404       .  A
C591        C592   1.400       .  A
C591        H595   1.083   1_655  S
C592        H596   1.083       .  S
C597        C598   1.404       .  A
C597        C602   1.395   1_655  A
C597        H607   1.083       .  S
C598        C599   1.406   1_655  A
C598        C603   1.481       .  S
C599        C600   1.400       .  A
C599        H604   1.083       .  S
C600        C601   1.404       .  A
C600        H605   1.083       .  S
C601        C602   1.403       .  A
C602        H606   1.083       .  S
C603        C608   1.405       .  A
C603        C612   1.406       .  A
C608        C609   1.400       .  A
C608        H613   1.083       .  S
C609        C610   1.402       .  A
C609        H614   1.083       .  S
C610        C611   1.400       .  A
C611        C612   1.395       .  A
C611        H615   1.083       .  S
C612        H616   1.083       .  S
C617        C618   1.405       .  A
C617        C622   1.396       .  A
C617        H627   1.083       .  S
C618        C619   1.404       .  A
C618        C623   1.480       .  S
C619        C620   1.401       .  A
C619        H624   1.083       .  S
C620        C621   1.404       .  A
C620        H625   1.083       .  S
C621        C622   1.400       .  A
C622        H626   1.083       .  S
C623        C628   1.402       .  A
C623        C632   1.406   1_655  A
C628        C629   1.395   1_655  A
C628        H633   1.083       .  S
C629        C630   1.405       .  A
C629        H634   1.083       .  S
C630        C631   1.405       .  A
C631        C632   1.403       .  A
C631        H635   1.083       .  S
C632        H636   1.083       .  S
C637        C638   1.407       .  A
C637        C642   1.395       .  A
C637        H647   1.082       .  S
C638        C639   1.407       .  A
C638        C643   1.488       .  S
C639        C640   1.398       .  A
C639        H644   1.082       .  S
C640        C641   1.405       .  A
C640        H645   1.083       .  S
C641        C642   1.404       .  A
C642        H646   1.083       .  S
C643        C648   1.407       .  A
C643        C652   1.408       .  A
C648        C649   1.395       .  A
C648        H653   1.082       .  S
C649        C650   1.402       .  A
C649        H654   1.083       .  S
C650        C651   1.402       .  A
C651        C652   1.397       .  A
C651        H655   1.083       .  S
C652        H656   1.082       .  S
C657        C658   1.408   1_545  A
C657        C662   1.398       .  A
C657        H667   1.082   1_545  S
C658        C659   1.406   1_565  A
C658        C663   1.486       .  S
C659        C660   1.393       .  A
C659        H664   1.082       .  S
C660        C661   1.400       .  A
C660        H665   1.083       .  S
C661        C662   1.401       .  A
C662        H666   1.083       .  S
C663        C668   1.407       .  A
C663        C672   1.406       .  A
C668        C669   1.399       .  A
C668        H673   1.083       .  S
C669        C670   1.407       .  A
C669        H674   1.083       .  S
C670        C671   1.404       .  A
C671        C672   1.394       .  A
C671        H675   1.083       .  S
C672        H676   1.082       .  S
C677        C678   1.405   1_565  A
C677        C682   1.403       .  A
C677        H687   1.083       .  S
C678        C679   1.403       .  A
C678        C683   1.481       .  S
C679        C680   1.397   1_545  A
C679        H684   1.083       .  S
C680        C681   1.405       .  A
C680        H685   1.083       .  S
C681        C682   1.405       .  A
C682        H686   1.083       .  S
C683        C688   1.404       .  A
C683        C692   1.405       .  A
C688        C689   1.402       .  A
C688        H693   1.083       .  S
C689        C690   1.405       .  A
C689        H694   1.083       .  S
C690        C691   1.401       .  A
C691        C692   1.397       .  A
C691        H695   1.083       .  S
C692        H696   1.083       .  S
C697        C698   1.406       .  A
C697        C702   1.398       .  A
C697        H707   1.083       .  S
C698        C699   1.406       .  A
C698        C703   1.480       .  S
C699        C700   1.393       .  A
C699        H704   1.083       .  S
C700        C701   1.400       .  A
C700        H705   1.083       .  S
C701        C702   1.401       .  A
C702        H706   1.083       .  S
C703        C708   1.406       .  A
C703        C712   1.406       .  A
C708        C709   1.395       .  A
C708        H713   1.083       .  S
C709        C710   1.401       .  A
C709        H714   1.083       .  S
C710        C711   1.401       .  A
C711        C712   1.397       .  A
C711        H715   1.083       .  S
C712        H716   1.083       .  S
C717        C718   1.406       .  A
C717        C722   1.400       .  A
C717        H727   1.083       .  S
C718        C719   1.405       .  A
C718        C723   1.481       .  S
C719        C720   1.393       .  A
C719        H724   1.083       .  S
C720        C721   1.401       .  A
C720        H725   1.083       .  S
C721        C722   1.404       .  A
C722        H726   1.083       .  S
C723        C728   1.406       .  A
C723        C732   1.405       .  A
C728        C729   1.401       .  A
C728        H733   1.083       .  S
C729        C730   1.404       .  A
C729        H734   1.083       .  S
C730        C731   1.402       .  A
C731        C732   1.394       .  A
C731        H735   1.084       .  S
C732        H736   1.083       .  S
C737        C738   1.407       .  A
C737        C742   1.399       .  A
C737        H747   1.083       .  S
C738        C739   1.409       .  A
C738        C743   1.492       .  S
C739        C740   1.402       .  A
C739        H744   1.083       .  S
C740        C741   1.403       .  A
C740        H745   1.083       .  S
C741        C742   1.404       .  A
C742        H746   1.083       .  S
C743        C748   1.407       .  A
C743        C752   1.409       .  A
C748        C749   1.400       .  A
C748        H753   1.083       .  S
C749        C750   1.404       .  A
C749        H754   1.083       .  S
C750        C751   1.402       .  A
C751        C752   1.399       .  A
C751        H755   1.083       .  S
C752        H756   1.083       .  S
C757        C758   1.405       .  A
C757        C762   1.399       .  A
C757        H767   1.083       .  S
C758        C759   1.406   1_655  A
C758        C763   1.487       .  S
C759        C760   1.398       .  A
C759        H764   1.083       .  S
C760        C761   1.406   1_455  A
C760        H765   1.083       .  S
C761        C762   1.408       .  A
C762        H766   1.083       .  S
C763        C768   1.408   1_554  A
C763        C772   1.406   1_655  A
C768        C769   1.400       .  A
C768        H773   1.083       .  S
C769        C770   1.401   1_556  A
C769        H774   1.083       .  S
C770        C771   1.402   1_655  A
C771        C772   1.396       .  A
C771        H775   1.083       .  S
C772        H776   1.083       .  S
C777        C778   1.410       .  A
C777        C782   1.397       .  A
C777        H787   1.081       .  S
C778        C779   1.410   1_455  A
C778        C783   1.498       .  S
C779        C780   1.398       .  A
C779        H784   1.081       .  S
C780        C781   1.402       .  A
C780        H785   1.083   1_556  S
C781        C782   1.403   1_655  A
C782        H786   1.083       .  S
C783        C788   1.409       .  A
C783        C792   1.411   1_455  A
C788        C789   1.396       .  A
C788        H793   1.081       .  S
C789        C790   1.403       .  A
C789        H794   1.083       .  S
C790        C791   1.403   1_455  A
C791        C792   1.400       .  A
C791        H795   1.083       .  S
C792        H796   1.081       .  S
C797        C798   1.409       .  A
C797        C802   1.401   1_455  A
C797        H807   1.083   1_455  S
C798        C799   1.408       .  A
C798        C803   1.492       .  S
C799        C800   1.396       .  A
C799        H804   1.082       .  S
C800        C801   1.402       .  A
C800        H805   1.083       .  S
C801        C802   1.404   1_455  A
C802        H806   1.083       .  S
C803        C808   1.408       .  A
C803        C812   1.409       .  A
C808        C809   1.398       .  A
C808        H813   1.083       .  S
C809        C810   1.402       .  A
C809        H814   1.083       .  S
C810        C811   1.403       .  A
C811        C812   1.400       .  A
C811        H815   1.083       .  S
C812        H816   1.082       .  S
C817        C818   1.404       .  A
C817        C822   1.393       .  A
C817        H827   1.083       .  S
C818        C819   1.404       .  A
C818        C823   1.474       .  S
C819        C820   1.400   1_455  A
C819        H824   1.083   1_455  S
C820        C821   1.403   1_655  A
C820        H825   1.083       .  S
C821        C822   1.400       .  A
C822        H826   1.083       .  S
C823        C828   1.402       .  A
C823        C832   1.404       .  A
C828        C829   1.393       .  A
C828        H833   1.083       .  S
C829        C830   1.404       .  A
C829        H834   1.083       .  S
C830        C831   1.405       .  A
C831        C832   1.400       .  A
C831        H835   1.083       .  S
C832        H836   1.083       .  S
C837        C838   1.403       .  A
C837        C842   1.396       .  A
C837        H847   1.083   1_556  S
C838        C839   1.405       .  A
C838        C843   1.480       .  S
C839        C840   1.397       .  A
C839        H844   1.083       .  S
C840        C841   1.406       .  A
C840        H845   1.083       .  S
C841        C842   1.407       .  A
C842        H846   1.083   1_556  S
C843        C848   1.406       .  A
C843        C852   1.406   1_556  A
C848        C849   1.397       .  A
C848        H853   1.083       .  S
C849        C850   1.401       .  A
C849        H854   1.083       .  S
C850        C851   1.400   1_556  A
C851        C852   1.395       .  A
C851        H855   1.083       .  S
C852        H856   1.083       .  S
C857        C858   1.407   1_556  A
C857        C862   1.397       .  A
C857        H867   1.083       .  S
C858        C859   1.406       .  A
C858        C863   1.485       .  S
C859        C860   1.397       .  A
C859        H864   1.083       .  S
C860        C861   1.402       .  A
C860        H865   1.083       .  S
C861        C862   1.401   1_554  A
C862        H866   1.083       .  S
C863        C868   1.405       .  A
C863        C872   1.405       .  A
C868        C869   1.397       .  A
C868        H873   1.083       .  S
C869        C870   1.406       .  A
C869        H874   1.083       .  S
C870        C871   1.406       .  A
C871        C872   1.398       .  A
C871        H875   1.083       .  S
C872        H876   1.083       .  S
C877        C878   1.404       .  A
C877        C882   1.396       .  A
C877        H887   1.083       .  S
C878        C879   1.405       .  A
C878        C883   1.479       .  S
C879        C880   1.399       .  A
C879        H884   1.083       .  S
C880        C881   1.403       .  A
C880        H885   1.083       .  S
C881        C882   1.402       .  A
C882        H886   1.083       .  S
C883        C888   1.406       .  A
C883        C892   1.405       .  A
C888        C889   1.396       .  A
C888        H893   1.083       .  S
C889        C890   1.400       .  A
C889        H894   1.083       .  S
C890        C891   1.402       .  A
C891        C892   1.399       .  A
C891        H895   1.083       .  S
C892        H896   1.083       .  S
C897        C898   1.405       .  A
C897        C902   1.403       .  A
C897        H907   1.083       .  S
C898        C899   1.403       .  A
C898        C903   1.479       .  S
C899        C900   1.395       .  A
C899        H904   1.084       .  S
C900        C901   1.404       .  A
C900        H905   1.084       .  S
C901        C902   1.405       .  A
C902        H906   1.083       .  S
C903        C908   1.404       .  A
C903        C912   1.404       .  A
C908        C909   1.402       .  A
C908        H913   1.083       .  S
C909        C910   1.404       .  A
C909        H914   1.083       .  S
C910        C911   1.401       .  A
C911        C912   1.395       .  A
C911        H915   1.083       .  S
C912        H916   1.083       .  S
C917        C918   1.408   1_564  A
C917        C922   1.399       .  A
C917        H927   1.083       .  S
C918        C919   1.406       .  A
C918        C923   1.489       .  S
C919        C920   1.398       .  A
C919        H924   1.083       .  S
C920        C921   1.403       .  A
C920        H925   1.083       .  S
C921        C922   1.402   1_546  A
C922        H926   1.083       .  S
C923        C928   1.406       .  A
C923        C932   1.406   1_545  A
C928        C929   1.400       .  A
C928        H933   1.083       .  S
C929        C930   1.407   1_545  A
C929        H934   1.083       .  S
C930        C931   1.406       .  A
C931        C932   1.399       .  A
C931        H935   1.083       .  S
C932        H936   1.083       .  S
C937        C938   1.409   1_565  A
C937        C942   1.397       .  A
C937        H947   1.082       .  S
C938        C939   1.408       .  A
C938        C943   1.490       .  S
C939        C940   1.398   1_554  A
C939        H944   1.082       .  S
C940        C941   1.401   1_556  A
C940        H945   1.083       .  S
C941        C942   1.400   1_545  A
C942        H946   1.083       .  S
C943        C948   1.405   1_545  A
C943        C952   1.409       .  A
C948        C949   1.396       .  A
C948        H953   1.083   1_554  S
C949        C950   1.407   1_565  A
C949        H954   1.083   1_554  S
C950        C951   1.405       .  A
C951        C952   1.401       .  A
C951        H955   1.083       .  S
C952        H956   1.083       .  S
C957        C958   1.407       .  A
C957        C962   1.397       .  A
C957        H967   1.083       .  S
C958        C959   1.407       .  A
C958        C963   1.488       .  S
C959        C960   1.400       .  A
C959        H964   1.083       .  S
C960        C961   1.403       .  A
C960        H965   1.083       .  S
C961        C962   1.402       .  A
C962        H966   1.083       .  S
C963        C968   1.407       .  A
C963        C972   1.408       .  A
C968        C969   1.395       .  A
C968        H973   1.083       .  S
C969        C970   1.401       .  A
C969        H974   1.083       .  S
C970        C971   1.403       .  A
C971        C972   1.401       .  A
C971        H975   1.083   1_565  S
C972        H976   1.083   1_565  S
C977        C978   1.404       .  A
C977        C982   1.395       .  A
C977        H987   1.083       .  S
C978        C979   1.405       .  A
C978        C983   1.479       .  S
C979        C980   1.403       .  A
C979        H984   1.083       .  S
C980        C981   1.404       .  A
C980        H985   1.083   1_565  S
C981        C982   1.401       .  A
C982        H986   1.083       .  S
C983        C988   1.405       .  A
C983        C992   1.403       .  A
C988        C989   1.403       .  A
C988        H993   1.083       .  S
C989        C990   1.406       .  A
C989        H994   1.083       .  S
C990        C991   1.405       .  A
C991        C992   1.396       .  A
C991        H995   1.083       .  S
C992        H996   1.083       .  S
C997        C998   1.406       .  A
C997       C1002   1.395       .  A
C997       H1007   1.083       .  S
C998        C999   1.407       .  A
C998       C1003   1.482       .  S
C999       C1000   1.399       .  A
C999       H1004   1.083       .  S
C1000      C1001   1.402       .  A
C1000      H1005   1.083       .  S
C1001      C1002   1.401       .  A
C1002      H1006   1.083       .  S
C1003      C1008   1.406       .  A
C1003      C1012   1.406       .  A
C1008      C1009   1.393       .  A
C1008      H1013   1.083       .  S
C1009      C1010   1.400       .  A
C1009      H1014   1.083       .  S
C1010      C1011   1.402       .  A
C1011      C1012   1.399       .  A
C1011      H1015   1.083   1_655  S
C1012      H1016   1.083   1_655  S
C1017      C1018   1.404       .  A
C1017      C1022   1.402       .  A
C1017      H1027   1.083       .  S
C1018      C1019   1.404       .  A
C1018      C1023   1.478       .  S
C1019      C1020   1.395       .  A
C1019      H1024   1.083       .  S
C1020      C1021   1.401       .  A
C1020      H1025   1.083       .  S
C1021      C1022   1.404       .  A
C1022      H1026   1.083       .  S
C1023      C1028   1.405       .  A
C1023      C1032   1.403       .  A
C1028      C1029   1.403       .  A
C1028      H1033   1.083       .  S
C1029      C1030   1.405       .  A
C1029      H1034   1.083       .  S
C1030      C1031   1.404       .  A
C1031      C1032   1.395       .  A
C1031      H1035   1.084       .  S
C1032      H1036   1.084       .  S
C1037      C1038   1.407       .  A
C1037      C1042   1.397   1_545  A
C1037      H1047   1.083       .  S
C1038      C1039   1.405   1_545  A
C1038      C1043   1.482       .  S
C1039      C1040   1.398       .  A
C1039      H1044   1.083       .  S
C1040      C1041   1.402       .  A
C1040      H1045   1.083       .  S
C1041      C1042   1.401       .  A
C1042      H1046   1.083       .  S
C1043      C1048   1.405       .  A
C1043      C1052   1.404       .  A
C1048      C1049   1.399       .  A
C1048      H1053   1.083       .  S
C1049      C1050   1.407       .  A
C1049      H1054   1.083       .  S
C1050      C1051   1.406       .  A
C1051      C1052   1.397       .  A
C1051      H1055   1.083       .  S
C1052      H1056   1.083       .  S
C1057      C1058   1.408       .  A
C1057      C1062   1.400       .  A
C1057      H1067   1.083       .  S
C1058      C1059   1.405       .  A
C1058      C1063   1.488       .  S
C1059      C1060   1.395       .  A
C1059      H1064   1.083       .  S
C1060      C1061   1.406       .  A
C1060      H1065   1.083       .  S
C1061      C1062   1.405       .  A
C1062      H1066   1.083       .  S
C1063      C1068   1.408       .  A
C1063      C1072   1.408       .  A
C1068      C1069   1.397       .  A
C1068      H1073   1.082       .  S
C1069      C1070   1.401       .  A
C1069      H1074   1.083       .  S
C1070      C1071   1.400       .  A
C1071      C1072   1.397       .  A
C1071      H1075   1.083       .  S
C1072      H1076   1.082       .  S
C1077      C1078   1.405       .  A
C1077      C1082   1.400       .  A
C1077      H1087   1.083       .  S
C1078      C1079   1.405       .  A
C1078      C1083   1.480       .  S
C1079      C1080   1.396       .  A
C1079      H1084   1.083       .  S
C1080      C1081   1.403       .  A
C1080      H1085   1.084       .  S
C1081      C1082   1.404       .  A
C1082      H1086   1.083       .  S
C1083      C1088   1.406       .  A
C1083      C1092   1.404       .  A
C1088      C1089   1.401       .  A
C1088      H1093   1.083       .  S
C1089      C1090   1.403       .  A
C1089      H1094   1.083       .  S
C1090      C1091   1.402       .  A
C1091      C1092   1.394       .  A
C1091      H1095   1.083       .  S
C1092      H1096   1.083       .  S
C1097      C1098   1.410       .  A
C1097      C1102   1.400       .  A
C1097      H1107   1.082       .  S
C1098      C1099   1.408       .  A
C1098      C1103   1.495       .  S
C1099      C1100   1.401       .  A
C1099      H1104   1.082       .  S
C1100      C1101   1.404       .  A
C1100      H1105   1.083       .  S
C1101      C1102   1.402       .  A
C1102      H1106   1.083       .  S
C1103      C1108   1.407       .  A
C1103      C1112   1.409       .  A
C1108      C1109   1.400       .  A
C1108      H1113   1.083       .  S
C1109      C1110   1.405       .  A
C1109      H1114   1.083       .  S
C1110      C1111   1.403       .  A
C1111      C1112   1.402       .  A
C1111      H1115   1.083       .  S
C1112      H1116   1.083       .  S
C1117      C1118   1.408       .  A
C1117      C1122   1.397       .  A
C1117      H1127   1.083       .  S
C1118      C1119   1.406       .  A
C1118      C1123   1.486       .  S
C1119      C1120   1.399       .  A
C1119      H1124   1.083       .  S
C1120      C1121   1.402       .  A
C1120      H1125   1.083       .  S
C1121      C1122   1.400       .  A
C1122      H1126   1.083       .  S
C1123      C1128   1.405       .  A
C1123      C1132   1.408       .  A
C1128      C1129   1.396       .  A
C1128      H1133   1.083       .  S
C1129      C1130   1.403       .  A
C1129      H1134   1.083       .  S
C1130      C1131   1.403       .  A
C1131      C1132   1.401       .  A
C1131      H1135   1.083       .  S
C1132      H1136   1.083       .  S
C1137      C1138   1.407   1_565  A
C1137      C1142   1.397       .  A
C1137      H1147   1.083   1_565  S
C1138      C1139   1.408   1_545  A
C1138      C1143   1.487       .  S
C1139      C1140   1.398       .  A
C1139      H1144   1.083       .  S
C1140      C1141   1.400       .  A
C1140      H1145   1.083       .  S
C1141      C1142   1.400       .  A
C1142      H1146   1.083       .  S
C1143      C1148   1.405       .  A
C1143      C1152   1.406       .  A
C1148      C1149   1.397       .  A
C1148      H1153   1.083       .  S
C1149      C1150   1.406       .  A
C1149      H1154   1.083       .  S
C1150      C1151   1.407       .  A
C1151      C1152   1.400       .  A
C1151      H1155   1.083       .  S
C1152      H1156   1.083       .  S
C1157      C1158   1.412   1_455  A
C1157      C1162   1.401       .  A
C1157      H1167   1.081       .  S
C1158      C1159   1.410   1_655  A
C1158      C1163   1.500       .  S
C1159      C1160   1.396       .  A
C1159      H1164   1.081   1_455  S
C1160      C1161   1.401       .  A
C1160      H1165   1.083       .  S
C1161      C1162   1.403       .  A
C1162      H1166   1.083       .  S
C1163      C1168   1.412       .  A
C1163      C1172   1.410       .  A
C1168      C1169   1.402       .  A
C1168      H1173   1.081       .  S
C1169      C1170   1.403       .  A
C1169      H1174   1.083       .  S
C1170      C1171   1.402       .  A
C1171      C1172   1.395       .  A
C1171      H1175   1.083       .  S
C1172      H1176   1.081       .  S
C1177      C1178   1.406       .  A
C1177      C1182   1.399       .  A
C1177      H1187   1.083       .  S
C1178      C1179   1.404       .  A
C1178      C1183   1.477       .  S
C1179      C1180   1.393       .  A
C1179      H1184   1.083       .  S
C1180      C1181   1.401       .  A
C1180      H1185   1.083       .  S
C1181      C1182   1.402       .  A
C1182      H1186   1.083   1_455  S
C1183      C1188   1.405       .  A
C1183      C1192   1.405       .  A
C1188      C1189   1.398       .  A
C1188      H1193   1.083       .  S
C1189      C1190   1.402       .  A
C1189      H1194   1.083       .  S
C1190      C1191   1.399       .  A
C1191      C1192   1.392       .  A
C1191      H1195   1.083       .  S
C1192      H1196   1.083       .  S
C1197      C1198   1.407       .  A
C1197      C1202   1.403       .  A
C1197      H1207   1.083       .  S
C1198      C1199   1.408       .  A
C1198      C1203   1.490       .  S
C1199      C1200   1.397       .  A
C1199      H1204   1.083       .  S
C1200      C1201   1.400       .  A
C1200      H1205   1.083       .  S
C1201      C1202   1.404       .  A
C1202      H1206   1.083       .  S
C1203      C1208   1.406       .  A
C1203      C1212   1.408       .  A
C1208      C1209   1.397       .  A
C1208      H1213   1.083       .  S
C1209      C1210   1.404       .  A
C1209      H1214   1.083       .  S
C1210      C1211   1.404       .  A
C1211      C1212   1.403       .  A
C1211      H1215   1.083       .  S
C1212      H1216   1.083       .  S
C1217      C1218   1.408       .  A
C1217      C1222   1.396       .  A
C1217      H1227   1.082       .  S
C1218      C1219   1.407       .  A
C1218      C1223   1.489       .  S
C1219      C1220   1.400       .  A
C1219      H1224   1.083       .  S
C1220      C1221   1.404       .  A
C1220      H1225   1.083       .  S
C1221      C1222   1.401       .  A
C1222      H1226   1.083       .  S
C1223      C1228   1.409   1_455  A
C1223      C1232   1.407       .  A
C1228      C1229   1.401       .  A
C1228      H1233   1.083       .  S
C1229      C1230   1.402       .  A
C1229      H1234   1.083       .  S
C1230      C1231   1.402       .  A
C1231      C1232   1.397   1_655  A
C1231      H1235   1.083       .  S
C1232      H1236   1.083       .  S
C1237      C1238   1.405       .  A
C1237      C1242   1.401       .  A
C1237      H1247   1.083       .  S
C1238      C1239   1.402       .  A
C1238      C1243   1.476       .  S
C1239      C1240   1.395       .  A
C1239      H1244   1.083       .  S
C1240      C1241   1.403       .  A
C1240      H1245   1.083       .  S
C1241      C1242   1.404       .  A
C1242      H1246   1.083       .  S
C1243      C1248   1.403       .  A
C1243      C1252   1.404       .  A
C1248      C1249   1.400       .  A
C1248      H1253   1.083   1_655  S
C1249      C1250   1.403       .  A
C1249      H1254   1.083   1_655  S
C1250      C1251   1.400       .  A
C1251      C1252   1.395       .  A
C1251      H1255   1.083       .  S
C1252      H1256   1.083       .  S
C1257      C1258   1.404       .  A
C1257      C1262   1.399       .  A
C1257      H1267   1.083       .  S
C1258      C1259   1.404       .  A
C1258      C1263   1.476       .  S
C1259      C1260   1.392       .  A
C1259      H1264   1.083       .  S
C1260      C1261   1.401       .  A
C1260      H1265   1.083       .  S
C1261      C1262   1.405       .  A
C1262      H1266   1.083   1_545  S
C1263      C1268   1.405       .  A
C1263      C1272   1.403       .  A
C1268      C1269   1.401       .  A
C1268      H1273   1.083       .  S
C1269      C1270   1.403       .  A
C1269      H1274   1.083       .  S
C1270      C1271   1.401       .  A
C1271      C1272   1.392       .  A
C1271      H1275   1.084       .  S
C1272      H1276   1.083       .  S
C1277      C1278   1.402   1_545  A
C1277      C1282   1.394       .  A
C1277      H1287   1.084       .  S
C1278      C1279   1.404       .  A
C1278      C1283   1.474       .  S
C1279      C1280   1.402   1_565  A
C1279      H1284   1.083       .  S
C1280      C1281   1.404       .  A
C1280      H1285   1.083       .  S
C1281      C1282   1.402       .  A
C1282      H1286   1.084       .  S
C1283      C1288   1.403       .  A
C1283      C1292   1.403       .  A
C1288      C1289   1.394       .  A
C1288      H1293   1.084   1_565  S
C1289      C1290   1.402       .  A
C1289      H1294   1.083       .  S
C1290      C1291   1.405       .  A
C1291      C1292   1.401       .  A
C1291      H1295   1.083       .  S
C1292      H1296   1.083       .  S
C1297      C1298   1.405       .  A
C1297      C1302   1.396       .  A
C1297      H1307   1.083       .  S
C1298      C1299   1.407       .  A
C1298      C1303   1.484       .  S
C1299      C1300   1.399       .  A
C1299      H1304   1.083       .  S
C1300      C1301   1.403       .  A
C1300      H1305   1.083       .  S
C1301      C1302   1.403       .  A
C1302      H1306   1.083       .  S
C1303      C1308   1.407       .  A
C1303      C1312   1.406       .  A
C1308      C1309   1.397       .  A
C1308      H1313   1.083       .  S
C1309      C1310   1.400       .  A
C1309      H1314   1.083       .  S
C1310      C1311   1.402       .  A
C1311      C1312   1.399       .  A
C1311      H1315   1.083       .  S
C1312      H1316   1.083       .  S
C1317      C1318   1.409       .  A
C1317      C1322   1.399       .  A
C1317      H1327   1.082       .  S
C1318      C1319   1.407       .  A
C1318      C1323   1.493       .  S
C1319      C1320   1.402       .  A
C1319      H1324   1.083   1_545  S
C1320      C1321   1.405       .  A
C1320      H1325   1.083   1_545  S
C1321      C1322   1.401       .  A
C1322      H1326   1.083       .  S
C1323      C1328   1.407       .  A
C1323      C1332   1.409       .  A
C1328      C1329   1.398       .  A
C1328      H1333   1.083       .  S
C1329      C1330   1.404       .  A
C1329      H1334   1.083       .  S
C1330      C1331   1.404       .  A
C1331      C1332   1.404       .  A
C1331      H1335   1.083       .  S
C1332      H1336   1.083       .  S
C1337      C1338   1.404   1_545  A
C1337      C1342   1.400       .  A
C1337      H1347   1.083       .  S
C1338      C1339   1.402   1_565  A
C1338      C1343   1.475       .  S
C1339      C1340   1.394       .  A
C1339      H1344   1.083   1_545  S
C1340      C1341   1.404       .  A
C1340      H1345   1.083       .  S
C1341      C1342   1.405       .  A
C1342      H1346   1.083       .  S
C1343      C1348   1.404       .  A
C1343      C1352   1.404       .  A
C1348      C1349   1.399       .  A
C1348      H1353   1.083       .  S
C1349      C1350   1.402       .  A
C1349      H1354   1.083       .  S
C1350      C1351   1.400       .  A
C1351      C1352   1.394       .  A
C1351      H1355   1.083       .  S
C1352      H1356   1.083       .  S
C1357      C1358   1.405       .  A
C1357      C1362   1.395       .  A
C1357      H1367   1.082       .  S
C1358      C1359   1.409       .  A
C1358      C1363   1.490       .  S
C1359      C1360   1.401       .  A
C1359      H1364   1.083       .  S
C1360      C1361   1.405       .  A
C1360      H1365   1.083       .  S
C1361      C1362   1.406       .  A
C1362      H1366   1.083       .  S
C1363      C1368   1.409       .  A
C1363      C1372   1.408       .  A
C1368      C1369   1.397       .  A
C1368      H1373   1.082       .  S
C1369      C1370   1.400       .  A
C1369      H1374   1.083       .  S
C1370      C1371   1.401       .  A
C1371      C1372   1.398       .  A
C1371      H1375   1.083       .  S
C1372      H1376   1.082       .  S
C1377      C1378   1.406   1_455  A
C1377      C1382   1.399       .  A
C1377      H1387   1.083   1_455  S
C1378      C1379   1.408   1_655  A
C1378      C1383   1.487       .  S
C1379      C1380   1.398       .  A
C1379      H1384   1.083       .  S
C1380      C1381   1.401       .  A
C1380      H1385   1.083       .  S
C1381      C1382   1.403       .  A
C1382      H1386   1.083       .  S
C1383      C1388   1.406       .  A
C1383      C1392   1.405       .  A
C1388      C1389   1.400       .  A
C1388      H1393   1.083       .  S
C1389      C1390   1.407       .  A
C1389      H1394   1.083       .  S
C1390      C1391   1.406       .  A
C1391      C1392   1.398       .  A
C1391      H1395   1.083       .  S
C1392      H1396   1.083       .  S
C1397      C1398   1.403       .  A
C1397      C1402   1.396       .  A
C1397      H1407   1.083       .  S
C1398      C1399   1.407       .  A
C1398      C1403   1.484       .  S
C1399      C1400   1.403       .  A
C1399      H1404   1.083       .  S
C1400      C1401   1.405       .  A
C1400      H1405   1.083       .  S
C1401      C1402   1.406       .  A
C1402      H1406   1.083       .  S
C1403      C1408   1.406       .  A
C1403      C1412   1.406       .  A
C1408      C1409   1.397       .  A
C1408      H1413   1.083       .  S
C1409      C1410   1.401       .  A
C1409      H1414   1.083       .  S
C1410      C1411   1.403       .  A
C1411      C1412   1.402       .  A
C1411      H1415   1.083       .  S
C1412      H1416   1.083       .  S
C1417      C1418   1.405       .  A
C1417      C1422   1.395       .  A
C1417      H1427   1.083       .  S
C1418      C1419   1.405       .  A
C1418      C1423   1.480       .  S
C1419      C1420   1.398       .  A
C1419      H1424   1.083       .  S
C1420      C1421   1.403       .  A
C1420      H1425   1.083       .  S
C1421      C1422   1.402       .  A
C1422      H1426   1.083       .  S
C1423      C1428   1.406       .  A
C1423      C1432   1.406       .  A
C1428      C1429   1.394       .  A
C1428      H1433   1.083       .  S
C1429      C1430   1.399       .  A
C1429      H1434   1.083       .  S
C1430      C1431   1.402       .  A
C1431      C1432   1.399       .  A
C1431      H1435   1.083       .  S
C1432      H1436   1.083       .  S
C1437      C1438   1.402       .  A
C1437      C1442   1.392       .  A
C1437      H1447   1.083       .  S
C1438      C1439   1.404   1_655  A
C1438      C1443   1.473   1_655  S
C1439      C1440   1.400   1_455  A
C1439      H1444   1.083       .  S
C1440      C1441   1.404       .  A
C1440      H1445   1.083       .  S
C1441      C1442   1.401       .  A
C1442      H1446   1.084       .  S
C1443      C1448   1.404       .  A
C1443      C1452   1.403       .  A
C1448      C1449   1.392       .  A
C1448      H1453   1.083   1_455  S
C1449      C1450   1.400       .  A
C1449      H1454   1.083       .  S
C1450      C1451   1.404       .  A
C1451      C1452   1.399       .  A
C1451      H1455   1.083       .  S
C1452      H1456   1.083       .  S
C1457      C1458   1.406       .  A
C1457      C1462   1.399       .  A
C1457      H1467   1.083       .  S
C1458      C1459   1.408       .  A
C1458      C1463   1.490       .  S
C1459      C1460   1.401       .  A
C1459      H1464   1.083       .  S
C1460      C1461   1.403       .  A
C1460      H1465   1.083       .  S
C1461      C1462   1.404       .  A
C1462      H1466   1.083       .  S
C1463      C1468   1.408       .  A
C1463      C1472   1.406       .  A
C1468      C1469   1.401       .  A
C1468      H1473   1.083       .  S
C1469      C1470   1.402       .  A
C1469      H1474   1.083       .  S
C1470      C1471   1.405       .  A
C1471      C1472   1.400       .  A
C1471      H1475   1.083       .  S
C1472      H1476   1.083       .  S
