geometry optimzed in LAMMPS
_audit_creation_date              2020-11-30 
_audit_creation_method            'lammps2cif' 
_symmetry_space_group_name_H-M    'P1' 
_symmetry_Int_Tables_number       1 
_symmetry_cell_setting            triclinic 
loop_ 
_symmetry_equiv_pos_as_xyz 
  x,y,z 
_cell_length_a                    48.44954488 
_cell_length_b                    36.951175540330865 
_cell_length_c                    42.03289865940926 
_cell_angle_alpha                 89.99980142448497 
_cell_angle_beta                  117.52324929399286 
_cell_angle_gamma                 90.00024246430354 
loop_ 
_atom_site_label 
_atom_site_type_symbol 
_atom_site_fract_x 
_atom_site_fract_y 
_atom_site_fract_z 
_atom_site_charge 
C1          C  0.46085046  0.14816467  0.33634485     0.79200
N2          N  0.47607090  0.12312518  0.36317263    -0.79100
C3          C  0.45938406  0.10294379  0.37590341     0.81600
N4          N  0.42818704  0.10787617  0.36123544    -0.79100
C5          C  0.41319632  0.13253333  0.33492220     0.81700
N6          N  0.42954344  0.15228635  0.32240103    -0.80800
Zr7        Zr  0.22591976  0.06011513  0.23652743     2.17500
O8          O  0.21883498  0.24747005  0.24513738    -0.52400
O9          O  0.16974666  0.07209268  0.20806798    -0.75600
O10         O  0.21615076  0.03842082  0.28540129    -0.82400
O11         O  0.24338036  0.05246652  0.15457674    -0.84100
O12         O  0.24526264  0.07018855  0.33668272    -0.79700
O13         O  0.21384603  0.02987535  0.17916662    -0.91400
O14         O  0.16546449  0.13009784  0.18943174    -0.77300
O15         O  0.22061091  0.11392598  0.26366053    -0.86800
O16         O  0.21995954  0.10626835  0.19511265    -0.86500
O17         O  0.27309704  0.06548512  0.29152991    -0.73300
O18         O  0.27248842  0.05861059  0.22965812    -0.85400
Zr19       Zr  0.30706572  0.17050996  0.27191879     2.26400
Zr20       Zr  0.26819845  0.12080202  0.31867401     2.06300
Zr21       Zr  0.26696041  0.10750106  0.18942926     2.10000
Zr22       Zr  0.21442764  0.16009021  0.22200952     1.78800
O23         O  0.30468743  0.08060919  0.17356000    -0.94200
O24         O  0.19586267  0.18957880  0.26071383    -0.42000
O25         O  0.26116127  0.16132995  0.21649128    -0.78600
O26         O  0.26013522  0.16987501  0.27782663    -0.97300
O27         O  0.31487119  0.12268322  0.31266657    -0.90600
O28         O  0.31360058  0.11668653  0.24454895    -0.93500
C29         C  0.15372494  0.09978285  0.19096648     1.00300
C30         C  0.22340024  0.02984993  0.15506094     1.13200
C31         C  0.22595233  0.04476242  0.31904010     1.04000
O32         O  0.23695398  0.14132475  0.34638963    -0.95600
O33         O  0.28769879  0.17817751  0.35188621    -0.91400
O34         O  0.31919113  0.20023813  0.32963601    -0.84500
C35         C  0.30816669  0.20081858  0.35241983     1.10600
O36         O  0.35628307  0.26861726  0.30448963    -0.97600
Zr37       Zr  0.31923897  0.06882371  0.28438298     1.88900
O38         O  0.36335791  0.16055485  0.30073183    -0.74300
O39         O  0.31713800  0.10108859  0.36821071    -0.53500
O40         O  0.33031766  0.03452168  0.33810301    -0.98200
O41         O  0.33660991  0.03604366  0.24635501    -0.55400
O42         O  0.36727621  0.10112978  0.31544986    -0.74800
C43         C  0.37911948  0.13204435  0.31606558     0.97600
O44         O  0.30204313  0.23565730  0.26504920    -0.63600
O45         O  0.22770345  0.13028650  0.13215348    -0.58400
O46         O  0.31771731  0.19307541  0.22413226    -0.95100
O47         O  0.28928570  0.16026144  0.17328944    -0.93500
O48         O  0.17069133  0.19687052  0.18032920    -0.93900
O49         O  0.21829882  0.20415244  0.18149362    -0.92600
C50         C  0.30795917  0.18635248  0.19057747     1.16400
H51         H  0.20223104  0.10157645  0.17218897     0.32400
H52         H  0.25804842  0.19260392  0.28767187     0.43200
H53         H  0.33149657  0.11846308  0.24025685     0.36700
H54         H  0.27495112  0.04487057  0.30645564     0.33200
H55         H  0.17651670  0.17643176  0.25592830     0.25000
H56         H  0.32806764  0.12311727  0.38136784     0.30900
H57         H  0.34762162  0.04793878  0.35747270     0.36900
H58         H  0.15645313  0.19940976  0.19114333     0.31300
H59         H  0.20982400  0.11351993  0.12413313     0.30200
H60         H  0.29956071  0.05456253  0.16988325     0.31900
H61         H  0.34638451  0.05448102  0.23769869     0.30800
H62         H  0.23836590  0.21704125  0.19409181     0.34800
H63         H  0.28627075  0.23913556  0.23981164     0.27600
H64         H  0.19988624  0.24174548  0.22288870     0.31800
H65         H  0.37701494  0.27979372  0.31869732     0.34700
H66         H  0.22015990  0.15276386  0.13832022     0.27300
H67         H  0.29136266  0.99342872  0.27900551     0.40100
H68         H  0.21519780  0.13771642  0.32770825     0.30200
H69         H  0.21054229  0.18306782  0.28568345     0.37800
H70         H  0.31772475  0.02826001  0.22479799     0.29700
H71         H  0.31138562  0.08791499  0.38463134     0.29700
H72         H  0.23599525  0.23528491  0.24304981     0.30000
C73         C  0.07260344  0.08264591  0.17270815     0.79200
N74         N  0.05684290  0.10777750  0.14626849    -0.79100
C75         C  0.07285118  0.12820653  0.13288378     0.81600
N76         N  0.10397770  0.12337018  0.14641643    -0.79100
C77         C  0.11959041  0.09885220  0.17267006     0.81700
N78         N  0.10385368  0.07878901  0.18580239    -0.80800
C79         C  0.32272733  0.20760353  0.17259806     0.79200
N80         N  0.30708561  0.23276537  0.14610351    -0.79100
C81         C  0.32313224  0.00290216  0.13257671     0.81600
N82         N  0.35420209  0.99769449  0.14598432    -0.79100
C83         C  0.36974081  0.22321612  0.17229352     0.81700
N84         N  0.35395011  0.20346870  0.18559697    -0.80800
Zr85       Zr  0.47606916  0.18469586  0.23635180     2.17500
O86         O  0.46831359  0.12197836  0.24399043    -0.52400
O87         O  0.41989914  0.19655238  0.20797464    -0.75600
O88         O  0.46654530  0.16255850  0.28526756    -0.82400
O89         O  0.49367932  0.17740876  0.15435350    -0.84100
O90         O  0.49510431  0.19495318  0.33628278    -0.79700
O91         O  0.46420041  0.15474101  0.17896704    -0.91400
O92         O  0.41558187  0.00435610  0.18890667    -0.77300
O93         O  0.47064806  0.23853482  0.26338985    -0.86800
O94         O  0.47004731  0.23085467  0.19492522    -0.86500
O95         O  0.02321855  0.19012500  0.29137964    -0.73300
O96         O  0.02266015  0.18333188  0.22950027    -0.85400
Zr97       Zr  0.05708560  0.04532017  0.27183633     2.26400
Zr98       Zr  0.01822750  0.24549275  0.31841396     2.06300
Zr99       Zr  0.01711770  0.23234104  0.18937065     2.10000
Zr100      Zr  0.46434822  0.03466537  0.22165594     1.78800
O101        O  0.05494451  0.20597297  0.17341773    -0.94200
O102        O  0.44585087  0.06401641  0.26047771    -0.42000
O103        O  0.01120179  0.03625508  0.21633717    -0.78600
O104        O  0.01012644  0.04467943  0.27764207    -0.97300
O105        O  0.06491549  0.24744364  0.31249563    -0.90600
O106        O  0.06370649  0.24151895  0.24449777    -0.93500
C107        C  0.40387023  0.22412458  0.19062420     1.00300
C108        C  0.47369456  0.15481297  0.15482852     1.13200
C109        C  0.47610320  0.16920750  0.31881058     1.04000
O110        O  0.48747980  0.01614568  0.34675894    -0.95600
O111        O  0.03781031  0.05305424  0.35166399    -0.91400
O112        O  0.06926067  0.07530739  0.32944842    -0.84500
C113        C  0.05820798  0.07582378  0.35220828     1.10600
O114        O  0.10615717  0.14309824  0.30429860    -0.97600
Zr115      Zr  0.06934844  0.19355760  0.28425361     1.88900
O116        O  0.11333136  0.03505851  0.30043287    -0.74300
O117        O  0.06690756  0.22530456  0.36800025    -0.53500
O118        O  0.08051614  0.15912453  0.33790866    -0.98200
O119        O  0.08682407  0.16118961  0.24608817    -0.55400
O120        O  0.11728839  0.22584202  0.31581828    -0.74800
C121        C  0.12906689  0.25671093  0.31608926     0.97600
O122        O  0.05216487  0.11047792  0.26473368    -0.63600
O123        O  0.47777462  0.00541205  0.13224336    -0.58400
O124        O  0.06768955  0.06797277  0.22415413    -0.95100
O125        O  0.03934583  0.03513983  0.17331288    -0.93500
O126        O  0.41982465  0.07059893  0.18018242    -0.93900
O127        O  0.46786726  0.07873062  0.18085518    -0.92600
C128        C  0.05793950  0.06126201  0.19062225     1.16400
H129        H  0.45237048  0.22605456  0.17199517     0.32400
H130        H  0.00805191  0.06744128  0.28744914     0.43200
H131        H  0.08160440  0.24335449  0.24021945     0.36700
H132        H  0.02512272  0.16953107  0.30634593     0.33200
H133        H  0.42678248  0.05045660  0.25608055     0.25000
H134        H  0.07783913  0.24723512  0.38137337     0.30900
H135        H  0.09777923  0.17257046  0.35730122     0.36900
H136        H  0.40602782  0.07339907  0.19155213     0.31300
H137        H  0.45966007  0.98902324  0.12433669     0.30200
H138        H  0.05013208  0.17984532  0.17005867     0.31900
H139        H  0.09642267  0.17976406  0.23735349     0.30800
H140        H  0.48796359  0.09160067  0.19326432     0.34800
H141        H  0.03621380  0.11390974  0.23956422     0.27600
H142        H  0.44960134  0.11640355  0.22143066     0.31800
H143        H  0.12697122  0.15417038  0.31824636     0.34700
H144        H  0.47063597  0.02815195  0.13846557     0.27300
H145        H  0.04156931  0.11841456  0.27877732     0.40100
H146        H  0.46565174  0.01309837  0.32807875     0.30200
H147        H  0.46077050  0.05790040  0.28546939     0.37800
H148        H  0.06795649  0.15323704  0.22459503     0.29700
H149        H  0.06089517  0.21205629  0.38416734     0.29700
H150        H  0.48568541  0.10976626  0.24236575     0.30000
C151        C  0.21078489  0.02356339  0.33654933     0.79200
N152        N  0.17945162  0.02742767  0.32256756    -0.79100
C153        C  0.16317611  0.00726440  0.33488080     0.81600
N154        N  0.17818122  0.23253052  0.36102815    -0.79100
C155        C  0.20939358  0.22785586  0.37573004     0.81700
N156        N  0.22603166  0.24841226  0.36321990    -0.80800
C157        C  0.45895149  0.08257030  0.08511272     0.79200
N158        N  0.42768765  0.07874690  0.07196423    -0.79100
C159        C  0.41193541  0.09881432  0.08508168     0.81600
N160        N  0.42754867  0.12331644  0.11135729    -0.79100
C161        C  0.45868395  0.12812619  0.12492843     0.81700
N162        N  0.47470367  0.10767731  0.11157641    -0.80800
Zr163      Zr  0.30560978  0.06001631  0.02121253     2.17500
O164        O  0.31262642  0.24742051  0.01258915    -0.52400
O165        O  0.36177824  0.07206553  0.04954387    -0.75600
O166        O  0.31557967  0.03850766  0.47245111    -0.82400
O167        O  0.28825624  0.05237648  0.10318029    -0.84100
O168        O  0.28639187  0.07023759  0.42117517    -0.79700
O169        O  0.31781990  0.02978795  0.07861873    -0.91400
O170        O  0.36600851  0.12991486  0.06858698    -0.77300
O171        O  0.31093995  0.11387568  0.49413828    -0.86800
O172        O  0.31152994  0.10610840  0.06266345    -0.86500
O173        O  0.25848234  0.06533560  0.46629412    -0.73300
O174        O  0.25902312  0.05856354  0.02804482    -0.85400
Zr175      Zr  0.22451694  0.17042383  0.48597446     2.26400
Zr176      Zr  0.26330528  0.12067867  0.43916820     2.06300
Zr177      Zr  0.26452440  0.10738362  0.06830468     2.10000
Zr178      Zr  0.31706455  0.15995846  0.03582409     1.78800
O179        O  0.22670760  0.08039090  0.08395778    -0.94200
O180        O  0.33584594  0.18952271  0.49731043    -0.42000
O181        O  0.27031492  0.16124610  0.04129025    -0.78600
O182        O  0.27142639  0.16974292  0.48003359    -0.97300
O183        O  0.21663802  0.12263412  0.44516460    -0.90600
O184        O  0.21788184  0.11659391  0.01318691    -0.93500
C185        C  0.37778477  0.09969624  0.06682385     1.00300
C186        C  0.30825836  0.02976896  0.10271875     1.13200
C187        C  0.30576582  0.04487055  0.43881445     1.04000
O188        O  0.29412168  0.14145656  0.41104520    -0.95600
O189        O  0.24375127  0.17796364  0.40587127    -0.91400
O190        O  0.21251743  0.20032020  0.42834753    -0.84500
C191        C  0.22344291  0.20076436  0.40546443     1.10600
O192        O  0.17507282  0.26870026  0.45372317    -0.97600
Zr193      Zr  0.21233054  0.06873993  0.47343994     1.88900
O194        O  0.16825244  0.16038660  0.45733657    -0.74300
O195        O  0.21442481  0.10057226  0.38980408    -0.53500
O196        O  0.20140723  0.03414594  0.41993393    -0.98200
O197        O  0.19506130  0.03566234  0.01137585    -0.55400
O198        O  0.16433230  0.10111462  0.44207421    -0.74800
C199        C  0.15248720  0.13196368  0.44175475     0.97600
O200        O  0.22940036  0.23555836  0.49305856    -0.63600
O201        O  0.30366066  0.13039138  0.12553440    -0.58400
O202        O  0.21390984  0.19307510  0.03368876    -0.95100
O203        O  0.24223964  0.16014323  0.08448071    -0.93500
O204        O  0.36081727  0.19667354  0.07755710    -0.93900
O205        O  0.31282050  0.20410381  0.07604692    -0.92600
C206        C  0.22364504  0.18630638  0.06723203     1.16400
H207        H  0.32923803  0.10138331  0.08559471     0.32400
H208        H  0.27350612  0.19245517  0.47015940     0.43200
H209        H  0.19998483  0.11835176  0.01748038     0.36700
H210        H  0.25667106  0.04473086  0.45137169     0.33200
H211        H  0.35502426  0.17619174  0.00196995     0.25000
H212        H  0.20340679  0.12252048  0.37655107     0.30900
H213        H  0.18394108  0.04731049  0.40051399     0.36900
H214        H  0.37504001  0.19925476  0.06672745     0.31300
H215        H  0.32170054  0.11387601  0.13350711     0.30200
H216        H  0.23206536  0.05441903  0.08797254     0.31900
H217        H  0.18493090  0.05421577  0.51983554     0.30800
H218        H  0.29291184  0.21724070  0.06315497     0.34800
H219        H  0.24507097  0.23916386  0.01770504     0.27600
H220        H  0.33131057  0.24147104  0.03503270     0.31800
H221        H  0.15437226  0.27997745  0.43959786     0.34700
H222        H  0.31095651  0.15303945  0.11934203     0.27300
H223        H  0.24001069  0.99350764  0.47901597     0.40100
H224        H  0.31593555  0.13849931  0.42979742     0.30200
H225        H  0.32103417  0.18336169  0.47229028     0.37800
H226        H  0.21397559  0.02818055  0.03305210     0.29700
H227        H  0.22024668  0.08740148  0.37343943     0.29700
H228        H  0.29519018  0.23528381  0.51454423     0.30000
C229        C  0.07076774  0.14818530  0.42153910     0.79200
N230        N  0.10208399  0.15226032  0.43549172    -0.79100
C231        C  0.11840697  0.13249012  0.42294506     0.81600
N232        N  0.10338452  0.10787133  0.39661258    -0.79100
C233        C  0.07219021  0.10295772  0.38197000     0.81700
N234        N  0.05552328  0.12315779  0.39471016    -0.80800
C235        C  0.32093276  0.02372867  0.42127102     0.79200
N236        N  0.35225709  0.02765484  0.43518535    -0.79100
C237        C  0.36852951  0.00746563  0.42288285     0.81600
N238        N  0.35347751  0.23258382  0.39679785    -0.79100
C239        C  0.32226408  0.22790960  0.38214806     0.81700
N240        N  0.30565903  0.24849510  0.39467132    -0.80800
C241        C  0.20891886  0.20757733  0.08523614     0.79200
N242        N  0.22457765  0.23278125  0.11167825    -0.77900
C243        C  0.20852068  0.00297684  0.12522212     0.81600
N244        N  0.17744233  0.99784037  0.11179531    -0.79100
C245        C  0.16192349  0.22324326  0.08555372     0.81700
N246        N  0.17770465  0.20343104  0.07228835    -0.80800
Zr247      Zr  0.05555861  0.18475122  0.02149265     2.17500
O248        O  0.06339102  0.12206043  0.01392242    -0.52400
O249        O  0.11175675  0.19649566  0.05006098    -0.75600
O250        O  0.06507560  0.16256142  0.47260452    -0.82400
O251        O  0.03784016  0.17747154  0.10341539    -0.84100
O252        O  0.03652473  0.19498803  0.42161380    -0.79700
O253        O  0.06738153  0.15483380  0.07887726    -0.91400
O254        O  0.11606318  0.00455197  0.06870121    -0.77300
O255        O  0.06100992  0.23859261  0.49444149    -0.86800
O256        O  0.06157280  0.23094013  0.06287014    -0.86500
O257        O  0.00841239  0.19021595  0.46644215    -0.73300
O258        O  0.00896770  0.18340791  0.02829993    -0.85400
Zr259      Zr  0.47464120  0.04539887  0.48617514     2.26400
Zr260      Zr  0.01340718  0.24559417  0.43943885     2.06300
Zr261      Zr  0.01454091  0.23241832  0.06843809     2.10000
Zr262      Zr  0.06725120  0.03480984  0.03605246     1.78800
O263        O  0.47685101  0.20586491  0.08452321    -0.94200
O264        O  0.08610194  0.06403164  0.49765804    -0.42000
O265        O  0.02047350  0.03629199  0.04149371    -0.78600
O266        O  0.02157620  0.04465524  0.48036224    -0.97300
O267        O  0.46675818  0.24750839  0.44542887    -0.90600
O268        O  0.46792352  0.24153605  0.01334424    -0.93500
C269        C  0.12779014  0.22415230  0.06720314     1.00300
C270        C  0.05784950  0.15489150  0.10298136     1.13200
C271        C  0.05552366  0.16923338  0.43907443     1.04000
O272        O  0.04403192  0.01637606  0.41110013    -0.95600
O273        O  0.49371598  0.05301346  0.40618985    -0.91400
O274        O  0.46239609  0.07539483  0.42853372    -0.84500
C275        C  0.47337052  0.07583192  0.40569556     1.10600
O276        O  0.42552447  0.14314450  0.45389539    -0.97600
Zr277      Zr  0.46231883  0.19361945  0.47364698     1.88900
O278        O  0.41839156  0.03515327  0.45759476    -0.74300
O279        O  0.46463146  0.22543391  0.38992570    -0.53500
O280        O  0.45124049  0.15898569  0.42012852    -0.98200
O281        O  0.44465523  0.16112901  0.01148989    -0.55400
O282        O  0.41443010  0.22596158  0.44167143    -0.74800
C283        C  0.40264214  0.25675623  0.44169585     0.97600
O284        O  0.47964044  0.11053903  0.49334006    -0.63600
O285        O  0.05385921  0.00556111  0.12550787    -0.58400
O286        O  0.46392349  0.06794218  0.03369756    -0.95100
O287        O  0.49226476  0.03509820  0.08453128    -0.93500
O288        O  0.11167396  0.07077737  0.07768156    -0.93900
O289        O  0.06382036  0.07889134  0.07689974    -0.92600
C290        C  0.47365041  0.06120871  0.06721878     1.16400
H291        H  0.07926812  0.22617447  0.08579472     0.32400
H292        H  0.02365122  0.06741330  0.47055047     0.43200
H293        H  0.45003094  0.24335792  0.01763631     0.36700
H294        H  0.00651046  0.16962770  0.45147182     0.33200
H295        H  0.10498455  0.05104948  0.00191915     0.25000
H296        H  0.45374504  0.24737066  0.37651999     0.30900
H297        H  0.43394211  0.17233922  0.40068756     0.36900
H298        H  0.12558776  0.07351203  0.06645728     0.31300
H299        H  0.07196021  0.98914548  0.13345203     0.30200
H300        H  0.48145106  0.17967320  0.08741856     0.31900
H301        H  0.43532747  0.17997037  0.52067202     0.30800
H302        H  0.04364385  0.09161949  0.06460522     0.34800
H303        H  0.49544146  0.11394977  0.01820612     0.27600
H304        H  0.08210182  0.11655684  0.03650449     0.31800
H305        H  0.40475630  0.15414347  0.43945044     0.34700
H306        H  0.06103111  0.02827267  0.11927513     0.27300
H307        H  0.49031590  0.11843274  0.47937061     0.40100
H308        H  0.06586753  0.01364266  0.42985641     0.30200
H309        H  0.07091154  0.05863078  0.47258468     0.37800
H310        H  0.46350092  0.15296209  0.03289403     0.29700
H311        H  0.47056122  0.21205395  0.37375362     0.29700
H312        H  0.04630389  0.10972313  0.51579677     0.30000
C313        C  0.46087086  0.14814349  0.83641495     0.79200
N314        N  0.47610085  0.12307833  0.86320620    -0.79100
C315        C  0.45942877  0.10290233  0.87595228     0.81600
N316        N  0.42824002  0.10786948  0.86134429    -0.79100
C317        C  0.41323784  0.13254658  0.83506112     0.81700
N318        N  0.42957017  0.15229950  0.82252020    -0.80800
Zr319      Zr  0.22598399  0.06001798  0.73660528     2.17500
O320        O  0.21883833  0.24745161  0.74527201    -0.52400
O321        O  0.16979731  0.07191560  0.70788930    -0.75600
O322        O  0.21601774  0.03854411  0.78542035    -0.82400
O323        O  0.24351343  0.05231169  0.65470410    -0.84100
O324        O  0.24520266  0.07024529  0.83672455    -0.79700
O325        O  0.21395272  0.02973792  0.67927263    -0.91400
O326        O  0.16552598  0.13002273  0.68952440    -0.77300
O327        O  0.22069243  0.11383737  0.76374546    -0.86800
O328        O  0.22003486  0.10617514  0.69520417    -0.86500
O329        O  0.27314732  0.06542100  0.79161717    -0.73300
O330        O  0.27256236  0.05856218  0.72975052    -0.85400
Zr331      Zr  0.30710737  0.17048470  0.77196625     2.26400
Zr332      Zr  0.26827428  0.12075091  0.81875004     2.06300
Zr333      Zr  0.26702522  0.10742738  0.68950096     2.10000
Zr334      Zr  0.21450162  0.15999617  0.72209517     1.78800
O335        O  0.30489816  0.08081121  0.67371515    -0.94200
O336        O  0.19592203  0.18937332  0.76082685    -0.42000
O337        O  0.26121401  0.16126440  0.71653944    -0.78600
O338        O  0.26019014  0.16982306  0.77789769    -0.97300
O339        O  0.31495024  0.12268023  0.81275357    -0.90600
O340        O  0.31364843  0.11665016  0.74462083    -0.93500
C341        C  0.15378340  0.09965580  0.69090107     1.00300
C342        C  0.22350442  0.02971235  0.65516375     1.13200
C343        C  0.22582665  0.04488001  0.81906393     1.04000
O344        O  0.23723854  0.14131382  0.84668524    -0.95600
O345        O  0.28771860  0.17814350  0.85192811    -0.91400
O346        O  0.31909761  0.20033155  0.82957487    -0.84500
C347        C  0.30810601  0.20086164  0.85238758     1.10600
O348        O  0.35646204  0.26874676  0.80404512    -0.97600
Zr349      Zr  0.31929606  0.06881237  0.78447344     1.88900
O350        O  0.36339662  0.16051978  0.80078751    -0.74300
O351        O  0.31722309  0.10098913  0.86824004    -0.53500
O352        O  0.33017254  0.03438459  0.83804459    -0.98200
O353        O  0.33673048  0.03606112  0.74649268    -0.55400
O354        O  0.36731664  0.10114981  0.81571303    -0.74800
C355        C  0.37915983  0.13204480  0.81622507     0.97600
O356        O  0.30216702  0.23564128  0.76500776    -0.63600
O357        O  0.22772714  0.13019470  0.63224094    -0.58400
O358        O  0.31780090  0.19300532  0.72421767    -0.95100
O359        O  0.28928243  0.16025232  0.67335990    -0.93500
O360        O  0.17074528  0.19680217  0.68052300    -0.93900
O361        O  0.21844681  0.20416422  0.68170285    -0.92600
C362        C  0.30798683  0.18631809  0.69065135     1.16400
H363        H  0.20230187  0.10147275  0.67228851     0.32400
H364        H  0.25808297  0.19255468  0.78772215     0.43200
H365        H  0.33155057  0.11842338  0.74033823     0.36700
H366        H  0.27495076  0.04481980  0.80653873     0.33200
H367        H  0.17661014  0.17615762  0.75606008     0.25000
H368        H  0.32816581  0.12301206  0.88139964     0.30900
H369        H  0.34748226  0.04773140  0.85747353     0.36900
H370        H  0.15649320  0.19922650  0.69133081     0.31300
H371        H  0.20981473  0.11348409  0.62427690     0.30200
H372        H  0.29981102  0.05475974  0.66997032     0.31900
H373        H  0.34663231  0.05448192  0.73798091     0.30800
H374        H  0.23851754  0.21704244  0.69432800     0.34800
H375        H  0.28644164  0.23911674  0.73974972     0.27600
H376        H  0.19985488  0.24172242  0.72306232     0.31800
H377        H  0.37714767  0.27994148  0.81848315     0.34700
H378        H  0.22025507  0.15272639  0.63840848     0.27300
H379        H  0.29131794  0.99345436  0.77873701     0.40100
H380        H  0.21545531  0.13792905  0.82799449     0.30200
H381        H  0.21062821  0.18287957  0.78579003     0.37800
H382        H  0.31785660  0.02841715  0.72485056     0.29700
H383        H  0.31147460  0.08781981  0.88466703     0.29700
H384        H  0.23596392  0.23520617  0.74316092     0.30000
C385        C  0.07265584  0.08252329  0.67263056     0.79200
N386        N  0.05690707  0.10768333  0.64621379    -0.79100
C387        C  0.07292015  0.12813570  0.63284837     0.81600
N388        N  0.10404414  0.12328020  0.64636320    -0.79100
C389        C  0.11964780  0.09872529  0.67258338     0.81700
N390        N  0.10390601  0.07865597  0.68571075    -0.80800
C391        C  0.32273828  0.20756688  0.67266347     0.79200
N392        N  0.30711009  0.23278780  0.64622635    -0.79100
C393        C  0.32317436  0.00290086  0.63263373     0.81600
N394        N  0.35423599  0.99767031  0.64599387    -0.79100
C395        C  0.36974182  0.22310460  0.67231292     0.81700
N396        N  0.35394699  0.20336615  0.68561078    -0.80800
Zr397      Zr  0.47608699  0.18458692  0.73643091     2.17500
O398        O  0.46848651  0.12178606  0.74396760    -0.52400
O399        O  0.41990147  0.19644048  0.70810601    -0.75600
O400        O  0.46654045  0.16246249  0.78531848    -0.82400
O401        O  0.49374741  0.17738028  0.65448438    -0.84100
O402        O  0.49509802  0.19490807  0.83630135    -0.79700
O403        O  0.46421855  0.15471002  0.67903898    -0.91400
O404        O  0.41560143  0.00427455  0.68885265    -0.77300
O405        O  0.47059132  0.23841268  0.76343154    -0.86800
O406        O  0.47006745  0.23072133  0.69498073    -0.86500
O407        O  0.02322319  0.19015795  0.79141278    -0.73300
O408        O  0.02268674  0.18334783  0.72952830    -0.85400
Zr409      Zr  0.05698004  0.04530422  0.77171232     2.26400
Zr410      Zr  0.01820124  0.24553960  0.81840222     2.06300
Zr411      Zr  0.01709239  0.23232924  0.68934235     2.10000
Zr412      Zr  0.46430884  0.03461158  0.72170729     1.78800
O413        O  0.05472779  0.20565815  0.67325584    -0.94200
O414        O  0.44587895  0.06395639  0.76059875    -0.42000
O415        O  0.01111019  0.03615168  0.71621114    -0.78600
O416        O  0.01000972  0.04458804  0.77748949    -0.97300
O417        O  0.06488686  0.24750849  0.81247376    -0.90600
O418        O  0.06368921  0.24151017  0.74445463    -0.93500
C419        C  0.40387328  0.22396403  0.69062901     1.00300
C420        C  0.47374282  0.15480222  0.65493029     1.13200
C421        C  0.47610396  0.16915052  0.81885274     1.04000
O422        O  0.48736468  0.01615805  0.84669764    -0.95600
O423        O  0.03769614  0.05302301  0.85155739    -0.91400
O424        O  0.06909063  0.07533509  0.82928906    -0.84500
C425        C  0.05806748  0.07581804  0.85207789     1.10600
O426        O  0.10601767  0.14300875  0.80427914    -0.97600
Zr427      Zr  0.06935444  0.19360621  0.78428974     1.88900
O428        O  0.11322675  0.03500846  0.80037361    -0.74300
O429        O  0.06688602  0.22538440  0.86802225    -0.53500
O430        O  0.08038603  0.15910455  0.83785986    -0.98200
O431        O  0.08710912  0.16133248  0.74633155    -0.55400
O432        O  0.11725284  0.22593252  0.81611806    -0.74800
C433        C  0.12903718  0.25673136  0.81611118     0.97600
O434        O  0.05202099  0.11045579  0.76451316    -0.63600
O435        O  0.47781284  0.00535352  0.63221630    -0.58400
O436        O  0.06766398  0.06793460  0.72406747    -0.95100
O437        O  0.03942266  0.03497579  0.67329071    -0.93500
O438        O  0.41968078  0.07053120  0.68044246    -0.93900
O439        O  0.46727642  0.07858433  0.68050640    -0.92600
C440        C  0.05797810  0.06114885  0.69055926     1.16400
H441        H  0.45241342  0.22589564  0.67203763     0.32400
H442        H  0.00790932  0.06735101  0.78727545     0.43200
H443        H  0.08158304  0.24334377  0.74016728     0.36700
H444        H  0.02511373  0.16957235  0.80638094     0.33200
H445        H  0.42671214  0.05054503  0.75607791     0.25000
H446        H  0.07784185  0.24731687  0.88136808     0.30900
H447        H  0.09759079  0.17256710  0.85730336     0.36900
H448        H  0.40591442  0.07320280  0.69186570     0.31300
H449        H  0.45970021  0.98896260  0.62431791     0.30200
H450        H  0.05007368  0.17947828  0.67036187     0.31900
H451        H  0.09637388  0.18000517  0.73728693     0.30800
H452        H  0.48753306  0.09118399  0.69252350     0.34800
H453        H  0.03607543  0.11385203  0.73933426     0.27600
H454        H  0.44955974  0.11633549  0.72158571     0.31800
H455        H  0.12681784  0.15396864  0.81863215     0.34700
H456        H  0.47065900  0.02810361  0.63840047     0.27300
H457        H  0.04141037  0.11841241  0.77853500     0.40100
H458        H  0.46554049  0.01293258  0.82806759     0.30200
H459        H  0.46072806  0.05765174  0.78556229     0.37800
H460        H  0.06830439  0.15294918  0.72500003     0.29700
H461        H  0.06090405  0.21213773  0.88421816     0.29700
H462        H  0.48565598  0.10960314  0.74187893     0.30000
C463        C  0.21067066  0.02367928  0.83659703     0.79200
N464        N  0.17934035  0.02754631  0.82267250    -0.79100
C465        C  0.16309060  0.00731736  0.83497605     0.81600
N466        N  0.17817824  0.23251469  0.86096562    -0.79100
C467        C  0.20938477  0.22781392  0.87561285     0.81700
N468        N  0.22600247  0.24838760  0.86309483    -0.80800
C469        C  0.45906196  0.08254964  0.58529591     0.79200
N470        N  0.42779440  0.07872996  0.57211399    -0.79100
C471        C  0.41201697  0.09884000  0.58516542     0.81600
N472        N  0.42760789  0.12337317  0.61141178    -0.79100
C473        C  0.45874747  0.12815582  0.62502403     0.81700
N474        N  0.47479451  0.10767163  0.61174112    -0.80800
Zr475      Zr  0.30569040  0.06004902  0.52128695     2.17500
O476        O  0.31250079  0.24730091  0.51263800    -0.52400
O477        O  0.36186495  0.07207541  0.54965142    -0.75600
O478        O  0.31558162  0.03857482  0.97240983    -0.82400
O479        O  0.28834234  0.05242656  0.60332628    -0.84100
O480        O  0.28624704  0.07011791  0.92104672    -0.79700
O481        O  0.31780614  0.02978865  0.57865741    -0.91400
O482        O  0.36609971  0.12998256  0.56852787    -0.77300
O483        O  0.31087798  0.11385764  0.99410714    -0.86800
O484        O  0.31161985  0.10614806  0.56273537    -0.86500
O485        O  0.25841659  0.06535132  0.96620278    -0.73300
O486        O  0.25911244  0.05855609  0.52814170    -0.85400
Zr487      Zr  0.22442772  0.17042417  0.98582729     2.26400
Zr488      Zr  0.26329853  0.12069386  0.93908639     2.06300
Zr489      Zr  0.26461486  0.10738583  0.56840292     2.10000
Zr490      Zr  0.31714314  0.15998641  0.53585697     1.78800
O491        O  0.22675092  0.08051065  0.58405830    -0.94200
O492        O  0.33574176  0.18945020  0.99724409    -0.42000
O493        O  0.27041997  0.16123302  0.54138830    -0.78600
O494        O  0.27137957  0.16972595  0.97997211    -0.97300
O495        O  0.21661321  0.12261455  0.94506640    -0.90600
O496        O  0.21797699  0.11657372  0.51330060    -0.93500
C497        C  0.37787131  0.09973290  0.56686105     1.00300
C498        C  0.30829407  0.02978680  0.60280187     1.13200
C499        C  0.30570894  0.04483924  0.93874584     1.04000
O500        O  0.29444422  0.14138693  0.91132190    -0.95600
O501        O  0.24393324  0.17808096  0.90589407    -0.91400
O502        O  0.21238602  0.20009791  0.92808215    -0.84500
C503        C  0.22345238  0.20070895  0.90533397     1.10600
O504        O  0.17499038  0.26882748  0.95367957    -0.97600
Zr505      Zr  0.21225314  0.06874810  0.97334078     1.88900
O506        O  0.16813917  0.16042131  0.95712975    -0.74300
O507        O  0.21426342  0.10105463  0.88963630    -0.53500
O508        O  0.20125592  0.03442884  0.91966596    -0.98200
O509        O  0.19504151  0.03588417  0.51150147    -0.55400
O510        O  0.16420854  0.10107237  0.94214242    -0.74800
C511        C  0.15236695  0.13196035  0.94166269     0.97600
O512        O  0.22924434  0.23559930  0.99250873    -0.63600
O513        O  0.30369769  0.13056056  0.62556954    -0.58400
O514        O  0.21387024  0.19291987  0.53376850    -0.95100
O515        O  0.24231038  0.16009672  0.58459797    -0.93500
O516        O  0.36092670  0.19668383  0.57756190    -0.93900
O517        O  0.31316128  0.20413000  0.57625195    -0.92600
C518        C  0.22364303  0.18618812  0.56731925     1.16400
H519        H  0.32933924  0.10143571  0.58566106     0.32400
H520        H  0.27347905  0.19244267  0.97012086     0.43200
H521        H  0.20008116  0.11832736  0.51759622     0.36700
H522        H  0.25659505  0.04474109  0.95128358     0.33200
H523        H  0.35502292  0.17612008  0.50186535     0.25000
H524        H  0.20335463  0.12309575  0.87648410     0.30900
H525        H  0.18374885  0.04763229  0.90033717     0.36900
H526        H  0.37512250  0.19929136  0.56669863     0.31300
H527        H  0.32178734  0.11412318  0.63354970     0.30200
H528        H  0.23214633  0.05455799  0.58822103     0.31900
H529        H  0.18500216  0.05393957  0.01983179     0.30800
H530        H  0.29310002  0.21702518  0.56363400     0.34800
H531        H  0.24526907  0.23899767  0.51825962     0.27600
H532        H  0.33132755  0.24142450  0.53496086     0.31800
H533        H  0.15431883  0.28010205  0.93936857     0.34700
H534        H  0.31090829  0.15323788  0.61931946     0.27300
H535        H  0.24005353  0.99343542  0.97869466     0.40100
H536        H  0.31621306  0.13804338  0.93006747     0.30200
H537        H  0.32102620  0.18306743  0.97225153     0.37800
H538        H  0.21394136  0.02848881  0.53323493     0.29700
H539        H  0.21994096  0.08782457  0.87317949     0.29700
H540        H  0.29518257  0.23538283  0.01418668     0.30000
C541        C  0.07065348  0.14815240  0.92143905     0.79200
N542        N  0.10196010  0.15225927  0.93535441    -0.79100
C543        C  0.11828347  0.13248719  0.92281601     0.81600
N544        N  0.10326105  0.10784943  0.89649630    -0.79100
C545        C  0.07206268  0.10293703  0.88185443     0.81700
N546        N  0.05540164  0.12312667  0.89460995    -0.80800
C547        C  0.32089684  0.02366990  0.92123789     0.79200
N548        N  0.35223594  0.02751784  0.93522370    -0.79100
C549        C  0.36850204  0.00734474  0.92289848     0.81600
N550        N  0.35339713  0.23262326  0.89672998    -0.79100
C551        C  0.32218711  0.22795823  0.88208998     0.81700
N552        N  0.30558559  0.24853675  0.89461971    -0.80800
C553        C  0.20891495  0.20745551  0.58530680     0.79200
N554        N  0.22459018  0.23263870  0.61175900    -0.77900
C555        C  0.20857090  0.00287341  0.62528422     0.81600
N556        N  0.17748312  0.99777248  0.61186313    -0.79100
C557        C  0.16191121  0.22324160  0.58553842     0.81700
N558        N  0.17768712  0.20338254  0.57229994    -0.80800
Zr559      Zr  0.05555604  0.18475953  0.52146858     2.17500
O560        O  0.06349114  0.12207767  0.51389426    -0.52400
O561        O  0.11172828  0.19663853  0.54978870    -0.75600
O562        O  0.06510601  0.16265312  0.97258494    -0.82400
O563        O  0.03791180  0.17741820  0.60342023    -0.84100
O564        O  0.03633104  0.19483165  0.92148661    -0.79700
O565        O  0.06743096  0.15479803  0.57884223    -0.91400
O566        O  0.11606059  0.00443879  0.56900470    -0.77300
O567        O  0.06097673  0.23855590  0.99439869    -0.86800
O568        O  0.06159369  0.23089757  0.56290206    -0.86500
O569        O  0.00841167  0.19014783  0.96645520    -0.73300
O570        O  0.00896771  0.18342447  0.52827844    -0.85400
Zr571      Zr  0.47460100  0.04529665  0.98607928     2.26400
Zr572      Zr  0.01336749  0.24550605  0.93937540     2.06300
Zr573      Zr  0.01456976  0.23238039  0.56847957     2.10000
Zr574      Zr  0.06728494  0.03472962  0.53620698     1.78800
O575        O  0.47681469  0.20586043  0.58440018    -0.94200
O576        O  0.08569276  0.06427296  0.99722682    -0.42000
O577        O  0.02049979  0.03623776  0.54163882    -0.78600
O578        O  0.02156026  0.04468842  0.98020175    -0.97300
O579        O  0.46667998  0.24751553  0.94530246    -0.90600
O580        O  0.46802509  0.24155213  0.51346688    -0.93500
C581        C  0.12777533  0.22417621  0.56719984     1.00300
C582        C  0.05791568  0.15484292  0.60296173     1.13200
C583        C  0.05543495  0.16919212  0.93900163     1.04000
O584        O  0.04408464  0.01613774  0.91094913    -0.95600
O585        O  0.49378866  0.05297200  0.90622662    -0.91400
O586        O  0.46237928  0.07527911  0.92847892    -0.84500
C587        C  0.47340983  0.07576385  0.90570211     1.10600
O588        O  0.42551674  0.14309460  0.95372577    -0.97600
Zr589      Zr  0.46224975  0.19362372  0.97350596     1.88900
O590        O  0.41836074  0.03503673  0.95754504    -0.74300
O591        O  0.46455390  0.22548690  0.88974954    -0.53500
O592        O  0.45116514  0.15925808  0.91984196    -0.98200
O593        O  0.44470323  0.16133084  0.51172916    -0.55400
O594        O  0.41433734  0.22594641  0.94163735    -0.74800
C595        C  0.40255936  0.25675788  0.94162266     0.97600
O596        O  0.47958901  0.11047361  0.99300025    -0.63600
O597        O  0.05393807  0.00530587  0.62564284    -0.58400
O598        O  0.46398042  0.06791083  0.53386004    -0.95100
O599        O  0.49248533  0.03520439  0.58474206    -0.93500
O600        O  0.11156884  0.07091166  0.57778763    -0.93900
O601        O  0.06387048  0.07874308  0.57709734    -0.92600
C602        C  0.47377676  0.06122771  0.56740340     1.16400
H603        H  0.07926729  0.22608421  0.58582964     0.32400
H604        H  0.02364526  0.06744213  0.97038793     0.43200
H605        H  0.45013751  0.24339284  0.51776507     0.36700
H606        H  0.00651944  0.16953226  0.95152040     0.33200
H607        H  0.10479352  0.04992488  0.50158192     0.25000
H608        H  0.45367471  0.24744176  0.87637759     0.30900
H609        H  0.43369802  0.17250943  0.90050888     0.36900
H610        H  0.12567058  0.07332456  0.56677598     0.31300
H611        H  0.07201172  0.98885287  0.63354827     0.30200
H612        H  0.48165592  0.17973686  0.58772607     0.31900
H613        H  0.43520802  0.17970566  0.02040958     0.30800
H614        H  0.04373739  0.09154954  0.56476080     0.34800
H615        H  0.49555008  0.11391584  0.51854132     0.27600
H616        H  0.08236662  0.11668257  0.53634848     0.31800
H617        H  0.40473157  0.15407278  0.93933151     0.34700
H618        H  0.06114217  0.02801509  0.61944961     0.27300
H619        H  0.49031399  0.11831057  0.97906634     0.40100
H620        H  0.06591878  0.01306468  0.92960271     0.30200
H621        H  0.07095901  0.05778813  0.97227045     0.37800
H622        H  0.46353892  0.15309907  0.53310956     0.29700
H623        H  0.47048363  0.21214786  0.87355838     0.29700
H624        H  0.04602528  0.10980766  0.01552700     0.30000
C625        C  0.46086222  0.39809802  0.33630965     0.79200
N626        N  0.47609981  0.37305171  0.36312747    -0.79100
C627        C  0.45943299  0.35286984  0.37588550     0.81600
N628        N  0.42823484  0.35781326  0.36124609    -0.79100
C629        C  0.41322905  0.38248856  0.33495058     0.81700
N630        N  0.42956178  0.40224331  0.32241269    -0.80800
Zr631      Zr  0.22590774  0.31010004  0.23651923     2.17500
O632        O  0.21874730  0.49742249  0.24507860    -0.52400
O633        O  0.16973964  0.32203048  0.20806973    -0.75600
O634        O  0.21612430  0.28841686  0.28540396    -0.82400
O635        O  0.24341955  0.30242947  0.15460084    -0.84100
O636        O  0.24519495  0.32020871  0.33668130    -0.79700
O637        O  0.21384444  0.27987292  0.17915372    -0.91400
O638        O  0.16546628  0.37999833  0.18934036    -0.77300
O639        O  0.22056642  0.36391544  0.26361776    -0.86800
O640        O  0.21996371  0.35622889  0.19508313    -0.86500
O641        O  0.27307221  0.31548142  0.29152366    -0.73300
O642        O  0.27248356  0.30860353  0.22966854    -0.85400
Zr643      Zr  0.30707286  0.42048438  0.27194555     2.26400
Zr644      Zr  0.26814164  0.37079265  0.31864403     2.06300
Zr645      Zr  0.26698692  0.35747742  0.18944536     2.10000
Zr646      Zr  0.21440560  0.41005264  0.22194830     1.78800
O647        O  0.30492034  0.33064883  0.17387916    -0.94200
O648        O  0.19570036  0.43948692  0.26054053    -0.42000
O649        O  0.26117821  0.41128371  0.21651826    -0.78600
O650        O  0.26010331  0.41984404  0.27778254    -0.97300
O651        O  0.31484272  0.37266285  0.31268566    -0.90600
O652        O  0.31361676  0.36667416  0.24457348    -0.93500
C653        C  0.15372239  0.34970103  0.19092308     1.00300
C654        C  0.22341291  0.27983485  0.15506031     1.13200
C655        C  0.22590285  0.29476635  0.31904101     1.04000
O656        O  0.23688567  0.39151312  0.34627981    -0.95600
O657        O  0.28762731  0.42814602  0.35186728    -0.91400
O658        O  0.31914944  0.45019014  0.32965060    -0.84500
C659        C  0.30810804  0.45077187  0.35241757     1.10600
O660        O  0.35640091  0.51868212  0.30436271    -0.97600
Zr661      Zr  0.31922857  0.31881299  0.28439277     1.88900
O662        O  0.36337910  0.41053028  0.30080933    -0.74300
O663        O  0.31708933  0.35103778  0.36815031    -0.53500
O664        O  0.33026984  0.28440981  0.33803387    -0.98200
O665        O  0.33654402  0.28595562  0.24635428    -0.55400
O666        O  0.36729813  0.35108137  0.31544019    -0.74800
C667        C  0.37914466  0.38200583  0.31610320     0.97600
O668        O  0.30204842  0.48563711  0.26508172    -0.63600
O669        O  0.22776612  0.38022129  0.13212944    -0.58400
O670        O  0.31776198  0.44298170  0.22415927    -0.95100
O671        O  0.28925509  0.41026300  0.17327014    -0.93500
O672        O  0.17076372  0.44690393  0.18019348    -0.93900
O673        O  0.21829003  0.45417345  0.18148424    -0.92600
C674        C  0.30797721  0.43630413  0.19059031     1.16400
H675        H  0.20224500  0.35152034  0.17215539     0.32400
H676        H  0.25799943  0.44257183  0.28761716     0.43200
H677        H  0.33152119  0.36844639  0.24029577     0.36700
H678        H  0.27491786  0.29487465  0.30645457     0.33200
H679        H  0.17641167  0.42623116  0.25579470     0.25000
H680        H  0.32802714  0.37304856  0.38134225     0.30900
H681        H  0.34751934  0.29785013  0.35744599     0.36900
H682        H  0.15637869  0.44925638  0.19082923     0.31300
H683        H  0.20983807  0.36353321  0.12415787     0.30200
H684        H  0.29955629  0.30468798  0.16971158     0.31900
H685        H  0.34656594  0.30431053  0.23792899     0.30800
H686        H  0.23841271  0.46696109  0.19403814     0.34800
H687        H  0.28632560  0.48910928  0.23982085     0.27600
H688        H  0.19973163  0.49176752  0.22287602     0.31800
H689        H  0.37709855  0.52988525  0.31871419     0.34700
H690        H  0.22029611  0.40277583  0.13825980     0.27300
H691        H  0.29121758  0.24341062  0.27889688     0.40100
H692        H  0.21512970  0.38785054  0.32761991     0.30200
H693        H  0.21041251  0.43308656  0.28553011     0.37800
H694        H  0.31765176  0.27843820  0.22466989     0.29700
H695        H  0.31134726  0.33781004  0.38455250     0.29700
H696        H  0.23583396  0.48517731  0.24288432     0.30000
C697        C  0.07260312  0.33261019  0.17268893     0.79200
N698        N  0.05684830  0.35773634  0.14624381    -0.79100
C699        C  0.07286127  0.37814645  0.13285350     0.81600
N700        N  0.10398353  0.37329104  0.14637832    -0.79100
C701        C  0.11959026  0.34877681  0.17263573     0.81700
N702        N  0.10385175  0.32873679  0.18578237    -0.80800
C703        C  0.32275484  0.45756315  0.17262544     0.79200
N704        N  0.30711935  0.48274140  0.14614704    -0.79100
C705        C  0.32315761  0.25289889  0.13255525     0.81600
N706        N  0.35422654  0.24770652  0.14596990    -0.79100
C707        C  0.36977699  0.47321558  0.17236232     0.81700
N708        N  0.35398006  0.45343637  0.18563575    -0.80800
Zr709      Zr  0.47609257  0.43467462  0.23634360     2.17500
O710        O  0.46829397  0.37194950  0.24391450    -0.52400
O711        O  0.41992806  0.44651600  0.20796271    -0.75600
O712        O  0.46654253  0.41248131  0.28521709    -0.82400
O713        O  0.49380777  0.42736436  0.15443182    -0.84100
O714        O  0.49507288  0.44490523  0.33621933    -0.79700
O715        O  0.46418599  0.40482526  0.17891496    -0.91400
O716        O  0.41559781  0.25437552  0.18888967    -0.77300
O717        O  0.47066951  0.48849943  0.26339462    -0.86800
O718        O  0.47009745  0.48084704  0.19493415    -0.86500
O719        O  0.02324548  0.44000554  0.29137189    -0.73300
O720        O  0.02265466  0.43330172  0.22948013    -0.85400
Zr721      Zr  0.05702727  0.29531886  0.27177539     2.26400
Zr722      Zr  0.01829556  0.49535985  0.31846434     2.06300
Zr723      Zr  0.01709385  0.48231695  0.18935065     2.10000
Zr724      Zr  0.46435604  0.28469571  0.22166656     1.78800
O725        O  0.05482359  0.45595372  0.17324182    -0.94200
O726        O  0.44585617  0.31404259  0.26048932    -0.42000
O727        O  0.01117873  0.28620413  0.21626280    -0.78600
O728        O  0.01005626  0.29461821  0.27755818    -0.97300
O729        O  0.06496295  0.49734115  0.31249460    -0.90600
O730        O  0.06370367  0.49145009  0.24446289    -0.93500
C731        C  0.40390235  0.47412000  0.19069307     1.00300
C732        C  0.47374392  0.40484773  0.15483517     1.13200
C733        C  0.47609236  0.41914309  0.31875577     1.04000
O734        O  0.48746437  0.26603455  0.34673406    -0.95600
O735        O  0.03776450  0.30293714  0.35160904    -0.91400
O736        O  0.06914118  0.32531084  0.32934880    -0.84500
C737        C  0.05812491  0.32575413  0.35213943     1.10600
O738        O  0.10621333  0.39303835  0.30398512    -0.97600
Zr739      Zr  0.06937385  0.44347388  0.28421893     1.88900
O740        O  0.11327453  0.28510483  0.30045488    -0.74300
O741        O  0.06700772  0.47527725  0.36809185    -0.53500
O742        O  0.08045470  0.40891270  0.33777776    -0.98200
O743        O  0.08686744  0.41118480  0.24602609    -0.55400
O744        O  0.11731390  0.47576601  0.31594932    -0.74800
C745        C  0.12909602  0.50661551  0.31612933     0.97600
O746        O  0.05217261  0.36048202  0.26464461    -0.63600
O747        O  0.47777696  0.25544172  0.13218368    -0.58400
O748        O  0.06767886  0.31793723  0.22412296    -0.95100
O749        O  0.03932812  0.28512594  0.17327257    -0.93500
O750        O  0.41976847  0.32051165  0.18014796    -0.93900
O751        O  0.46783947  0.32882234  0.18088385    -0.92600
C752        C  0.05793008  0.31123519  0.19059168     1.16400
H753        H  0.45241081  0.47607849  0.17200189     0.32400
H754        H  0.00795508  0.31736075  0.28737659     0.43200
H755        H  0.08159290  0.49329191  0.24016817     0.36700
H756        H  0.02512292  0.41939817  0.30631277     0.33200
H757        H  0.42674916  0.30053450  0.25603231     0.25000
H758        H  0.07793819  0.49723780  0.38140167     0.30900
H759        H  0.09766529  0.42236764  0.35722227     0.36900
H760        H  0.40604438  0.32344469  0.19159619     0.31300
H761        H  0.45966284  0.23905298  0.12428262     0.30200
H762        H  0.05008399  0.42980482  0.17001486     0.31900
H763        H  0.09644957  0.42978252  0.23729487     0.30800
H764        H  0.48796730  0.34163645  0.19325089     0.34800
H765        H  0.03625667  0.36392385  0.23946080     0.27600
H766        H  0.44962358  0.36637204  0.22131217     0.31800
H767        H  0.12698775  0.40406736  0.31831009     0.34700
H768        H  0.47063540  0.27818366  0.13839983     0.27300
H769        H  0.04154848  0.36844840  0.27864703     0.40100
H770        H  0.46564138  0.26293460  0.32805699     0.30200
H771        H  0.46074158  0.30785408  0.28547449     0.37800
H772        H  0.06799945  0.40323285  0.22453303     0.29700
H773        H  0.06103172  0.46207517  0.38431503     0.29700
H774        H  0.48570447  0.35973384  0.24237951     0.30000
C775        C  0.21072601  0.27356531  0.33654846     0.79200
N776        N  0.17939647  0.27744810  0.32256834    -0.79100
C777        C  0.16311587  0.25731040  0.33489184     0.81600
N778        N  0.17824563  0.48246405  0.36104343    -0.79100
C779        C  0.20946095  0.47782069  0.37573235     0.81700
N780        N  0.22607786  0.49839472  0.36321045    -0.80800
C781        C  0.45899489  0.33262886  0.08512514     0.79200
N782        N  0.42773393  0.32880303  0.07198206    -0.79100
C783        C  0.41198643  0.34887329  0.08510011     0.81600
N784        N  0.42759764  0.37337623  0.11137018    -0.79100
C785        C  0.45873069  0.37818235  0.12493400     0.81700
N786        N  0.47474879  0.35773391  0.11158450    -0.80800
Zr787      Zr  0.30569008  0.31008369  0.02125846     2.17500
O788        O  0.31250308  0.49732919  0.01267178    -0.52400
O789        O  0.36184429  0.32212727  0.04958491    -0.75600
O790        O  0.31569283  0.28855717  0.47250087    -0.82400
O791        O  0.28831683  0.30241031  0.10321616    -0.84100
O792        O  0.28633184  0.32009929  0.42114887    -0.79700
O793        O  0.31787073  0.27983551  0.07863990    -0.91400
O794        O  0.36607402  0.37999374  0.06856888    -0.77300
O795        O  0.31091369  0.36381067  0.49408691    -0.86800
O796        O  0.31161916  0.35618602  0.06270597    -0.86500
O797        O  0.25847257  0.31527263  0.46631476    -0.73300
O798        O  0.25911348  0.30857959  0.02811567    -0.85400
Zr799      Zr  0.22449145  0.42039469  0.48592597     2.26400
Zr800      Zr  0.26326777  0.37059733  0.43912935     2.06300
Zr801      Zr  0.26461725  0.35742348  0.06835813     2.10000
Zr802      Zr  0.31713362  0.41002647  0.03583662     1.78800
O803        O  0.22676967  0.33047226  0.08398558    -0.94200
O804        O  0.33576044  0.43955315  0.49715004    -0.42000
O805        O  0.27038739  0.41128404  0.04131719    -0.78600
O806        O  0.27139931  0.41970064  0.47996106    -0.97300
O807        O  0.21661846  0.37254241  0.44517457    -0.90600
O808        O  0.21795820  0.36661621  0.01325721    -0.93500
C809        C  0.37784627  0.34976507  0.06683801     1.00300
C810        C  0.30830260  0.27979586  0.10273235     1.13200
C811        C  0.30580826  0.29483091  0.43883518     1.04000
O812        O  0.29409776  0.39129169  0.41099633    -0.95600
O813        O  0.24382752  0.42793414  0.40588262    -0.91400
O814        O  0.21259321  0.45031534  0.42834770    -0.84500
C815        C  0.22352575  0.45074777  0.40547293     1.10600
O816        O  0.17513095  0.51866905  0.45359215    -0.97600
Zr817      Zr  0.21234302  0.31867898  0.47351906     1.88900
O818        O  0.16820224  0.41035955  0.45708019    -0.74300
O819        O  0.21429222  0.35076214  0.38972389    -0.53500
O820        O  0.20141618  0.28410836  0.42000436    -0.98200
O821        O  0.19511964  0.28581760  0.01153741    -0.55400
O822        O  0.16427828  0.35095190  0.44228583    -0.74800
C823        C  0.15243514  0.38186185  0.44171428     0.97600
O824        O  0.22941130  0.48552400  0.49312665    -0.63600
O825        O  0.30373659  0.38034092  0.12563679    -0.58400
O826        O  0.21394933  0.44300244  0.03372555    -0.95100
O827        O  0.24238283  0.41018843  0.08456883    -0.93500
O828        O  0.36095588  0.44667030  0.07754906    -0.93900
O829        O  0.31308581  0.45413383  0.07621711    -0.92600
C830        C  0.22372055  0.43628110  0.06728028     1.16400
H831        H  0.32932887  0.35147639  0.08564114     0.32400
H832        H  0.27350010  0.44240744  0.47009421     0.43200
H833        H  0.20006709  0.36838390  0.01756024     0.36700
H834        H  0.25667149  0.29465680  0.45140896     0.33200
H835        H  0.35503636  0.42615168  0.00187933     0.25000
H836        H  0.20335141  0.37277542  0.37653872     0.30900
H837        H  0.18402424  0.29735260  0.40057274     0.36900
H838        H  0.37509957  0.44935286  0.06662485     0.31300
H839        H  0.32174888  0.36378349  0.13360782     0.30200
H840        H  0.23215400  0.30451235  0.08808267     0.31900
H841        H  0.18500136  0.30407731  0.51995741     0.30800
H842        H  0.29306845  0.46710414  0.06351857     0.34800
H843        H  0.24504385  0.48916517  0.01775110     0.27600
H844        H  0.33124869  0.49139731  0.03505724     0.31800
H845        H  0.15441972  0.52993373  0.43949886     0.34700
H846        H  0.31108048  0.40297207  0.11947607     0.27300
H847        H  0.24007779  0.24348388  0.47910315     0.40100
H848        H  0.31590885  0.38822581  0.42972133     0.30200
H849        H  0.32109198  0.43306538  0.47217060     0.37800
H850        H  0.21403529  0.27826143  0.03317485     0.29700
H851        H  0.22004126  0.33758151  0.37330172     0.29700
H852        H  0.29522061  0.48528321  0.51443297     0.30000
C853        C  0.07072241  0.39808774  0.42149257     0.79200
N854        N  0.10203444  0.40216533  0.43542380    -0.79100
C855        C  0.11835235  0.38238380  0.42288296     0.81600
N856        N  0.10332389  0.35774690  0.39656833    -0.79100
C857        C  0.07212398  0.35285193  0.38192590     0.81700
N858        N  0.05546488  0.37306421  0.39466573    -0.80800
C859        C  0.32098203  0.27368165  0.42129365     0.79200
N860        N  0.35231362  0.27756422  0.43523284    -0.79100
C861        C  0.36857592  0.25738061  0.42291013     0.81600
N862        N  0.35342808  0.48248605  0.39678617    -0.79100
C863        C  0.32221550  0.47783721  0.38215361     0.81700
N864        N  0.30562573  0.49844497  0.39468030    -0.80800
C865        C  0.20897286  0.45753870  0.08525399     0.79200
N866        N  0.22462735  0.48272921  0.11170416    -0.77900
C867        C  0.20852346  0.25296639  0.12521162     0.81600
N868        N  0.17744803  0.24779998  0.11180931    -0.79100
C869        C  0.16195634  0.47323709  0.08550668     0.81700
N870        N  0.17774934  0.45341538  0.07226164    -0.80800
Zr871      Zr  0.05557695  0.43470673  0.02147472     2.17500
O872        O  0.06341934  0.37200403  0.01391206    -0.52400
O873        O  0.11177803  0.44648633  0.05000380    -0.75600
O874        O  0.06512415  0.41254581  0.47260046    -0.82400
O875        O  0.03789184  0.42744102  0.10342042    -0.84100
O876        O  0.03644177  0.44483675  0.42154858    -0.79700
O877        O  0.06738133  0.40475637  0.07883540    -0.91400
O878        O  0.11606794  0.25448823  0.06868588    -0.77300
O879        O  0.06098459  0.48850904  0.49434359    -0.86800
O880        O  0.06161031  0.48090553  0.06285737    -0.86500
O881        O  0.00840606  0.44015002  0.46643770    -0.73300
O882        O  0.00901926  0.43338190  0.02833971    -0.85400
Zr883      Zr  0.47468735  0.29535003  0.48617808     2.26400
Zr884      Zr  0.01336422  0.49549331  0.43935431     2.06300
Zr885      Zr  0.01460375  0.48239992  0.06847973     2.10000
Zr886      Zr  0.06725265  0.28474572  0.03609054     1.78800
O887        O  0.47677167  0.45589157  0.08434309    -0.94200
O888        O  0.08597601  0.31409449  0.49750855    -0.42000
O889        O  0.02046747  0.28625767  0.04151033    -0.78600
O890        O  0.02159081  0.29466841  0.48034486    -0.97300
O891        O  0.46669712  0.49740503  0.44540598    -0.90600
O892        O  0.46793279  0.49153369  0.01332814    -0.93500
C893        C  0.12781487  0.47413990  0.06715748     1.00300
C894        C  0.05786918  0.40483389  0.10295679     1.13200
C895        C  0.05550039  0.41914353  0.43904154     1.04000
O896        O  0.04410798  0.26624125  0.41110908    -0.95600
O897        O  0.49381186  0.30295908  0.40623337    -0.91400
O898        O  0.46245110  0.32532398  0.42852446    -0.84500
C899        C  0.47344099  0.32576657  0.40570077     1.10600
O900        O  0.42546067  0.39308842  0.45410551    -0.97600
Zr901      Zr  0.46229732  0.44352412  0.47365673     1.88900
O902        O  0.41844189  0.28504981  0.45762612    -0.74300
O903        O  0.46455783  0.47532025  0.38982731    -0.53500
O904        O  0.45123133  0.40876336  0.42021097    -0.98200
O905        O  0.44473033  0.41115900  0.01158429    -0.55400
O906        O  0.41440345  0.47586160  0.44155781    -0.74800
C907        C  0.40261101  0.50663989  0.44164940     0.97600
O908        O  0.47967546  0.36049077  0.49334721    -0.63600
O909        O  0.05383170  0.25551798  0.12555442    -0.58400
O910        O  0.46394078  0.31798213  0.03370390    -0.95100
O911        O  0.49231994  0.28518245  0.08455492    -0.93500
O912        O  0.11160975  0.32069418  0.07787820    -0.93900
O913        O  0.06386961  0.32884434  0.07694158    -0.92600
C914        C  0.47368882  0.31127175  0.06723223     1.16400
H915        H  0.07931065  0.47613809  0.08577642     0.32400
H916        H  0.02366963  0.31741583  0.47051819     0.43200
H917        H  0.45004371  0.49335797  0.01762695     0.36700
H918        H  0.00651277  0.41954544  0.45149051     0.33200
H919        H  0.10498532  0.30072097  0.00190924     0.25000
H920        H  0.45365721  0.49726882  0.37645968     0.30900
H921        H  0.43398560  0.42214270  0.40073319     0.36900
H922        H  0.12563133  0.32335383  0.06678715     0.31300
H923        H  0.07193810  0.23911480  0.13347279     0.30200
H924        H  0.48153672  0.42974655  0.08755432     0.31900
H925        H  0.43557001  0.42991753  0.52095026     0.30800
H926        H  0.04368277  0.34155228  0.06465637     0.34800
H927        H  0.49542760  0.36397387  0.01823171     0.27600
H928        H  0.08216040  0.36649306  0.03646562     0.31800
H929        H  0.40470923  0.40408177  0.43955260     0.34700
H930        H  0.06099113  0.27824243  0.11932896     0.27300
H931        H  0.49031875  0.36839112  0.47934494     0.40100
H932        H  0.06593949  0.26328806  0.42981014     0.30200
H933        H  0.07094273  0.30829491  0.47247407     0.37800
H934        H  0.46358633  0.40305842  0.03301227     0.29700
H935        H  0.47048932  0.46199570  0.37362843     0.29700
H936        H  0.04609274  0.35972959  0.51575411     0.30000
C937        C  0.46082875  0.39809822  0.83629583     0.79200
N938        N  0.47605905  0.37305366  0.86310919    -0.79100
C939        C  0.45938944  0.35290088  0.87587681     0.81600
N940        N  0.42820262  0.35788140  0.86127541    -0.79100
C941        C  0.41319931  0.38254042  0.83497238     0.81700
N942        N  0.42952734  0.40225583  0.82239792    -0.80800
Zr943      Zr  0.22597094  0.31004639  0.73653235     2.17500
O944        O  0.21863342  0.49745381  0.74500327    -0.52400
O945        O  0.16979670  0.32199555  0.70795309    -0.75600
O946        O  0.21607199  0.28844375  0.78533886    -0.82400
O947        O  0.24352295  0.30226681  0.65471021    -0.84100
O948        O  0.24522404  0.32016270  0.83663779    -0.79700
O949        O  0.21384665  0.27980872  0.67917271    -0.91400
O950        O  0.16552138  0.38004853  0.68945300    -0.77300
O951        O  0.22068084  0.36384300  0.76368650    -0.86800
O952        O  0.22000133  0.35621290  0.69513634    -0.86500
O953        O  0.27315609  0.31539521  0.79153039    -0.73300
O954        O  0.27254387  0.30855331  0.72965764    -0.85400
Zr955      Zr  0.30707860  0.42048956  0.77190849     2.26400
Zr956      Zr  0.26827185  0.37070914  0.81868426     2.06300
Zr957      Zr  0.26698251  0.35744171  0.68942408     2.10000
Zr958      Zr  0.21448244  0.41002271  0.72205329     1.78800
O959        O  0.30481243  0.33092803  0.67352148    -0.94200
O960        O  0.19597030  0.43945482  0.76083160    -0.42000
O961        O  0.26118304  0.41128307  0.71647541    -0.78600
O962        O  0.26017366  0.41981718  0.77785916    -0.97300
O963        O  0.31494124  0.37266276  0.81267423    -0.90600
O964        O  0.31361112  0.36667791  0.74453089    -0.93500
C965        C  0.15378044  0.34970898  0.69090768     1.00300
C966        C  0.22345638  0.27972533  0.65511964     1.13200
C967        C  0.22586943  0.29478080  0.81897678     1.04000
O968        O  0.23718054  0.39113370  0.84659849    -0.95600
O969        O  0.28770197  0.42809675  0.85188357    -0.91400
O970        O  0.31908638  0.45030414  0.82954668    -0.84500
C971        C  0.30809245  0.45082141  0.85235996     1.10600
O972        O  0.35642144  0.51872538  0.80407709    -0.97600
Zr973      Zr  0.31929382  0.31882148  0.78436639     1.88900
O974        O  0.36336223  0.41051122  0.80064939    -0.74300
O975        O  0.31720927  0.35097520  0.86820582    -0.53500
O976        O  0.33024063  0.28430180  0.83790952    -0.98200
O977        O  0.33679852  0.28624937  0.74635499    -0.55400
O978        O  0.36727158  0.35119472  0.81575174    -0.74800
C979        C  0.37912092  0.38205941  0.81616414     0.97600
O980        O  0.30216433  0.48565168  0.76502725    -0.63600
O981        O  0.22769094  0.38015800  0.63213776    -0.58400
O982        O  0.31776500  0.44297457  0.72414676    -0.95100
O983        O  0.28924495  0.41023470  0.67327717    -0.93500
O984        O  0.17058267  0.44662561  0.68044481    -0.93900
O985        O  0.21850424  0.45412746  0.68165841    -0.92600
C986        C  0.30795739  0.43628529  0.69058219     1.16400
H987        H  0.20226881  0.35151972  0.67221793     0.32400
H988        H  0.25807602  0.44254887  0.78769225     0.43200
H989        H  0.33150584  0.36847287  0.74023814     0.36700
H990        H  0.27497863  0.29478441  0.80644836     0.33200
H991        H  0.17663780  0.42628671  0.75606457     0.25000
H992        H  0.32816324  0.37301744  0.88130909     0.30900
H993        H  0.34750638  0.29769216  0.85734915     0.36900
H994        H  0.15641617  0.44915007  0.69135705     0.31300
H995        H  0.20979828  0.36341770  0.62417527     0.30200
H996        H  0.29986937  0.30483252  0.67000380     0.31900
H997        H  0.34648708  0.30476664  0.73767163     0.30800
H998        H  0.23853519  0.46707643  0.69433064     0.34800
H999        H  0.28647651  0.48915278  0.73975729     0.27600
H1000       H  0.19973402  0.49177223  0.72268212     0.31800
H1001       H  0.37714500  0.52994049  0.81822873     0.34700
H1002       H  0.22018634  0.40267556  0.63828592     0.27300
H1003       H  0.29129249  0.24345250  0.77878320     0.40100
H1004       H  0.21540643  0.38776016  0.82787700     0.30200
H1005       H  0.21066597  0.43293283  0.78579177     0.37800
H1006       H  0.31793682  0.27837854  0.72481570     0.29700
H1007       H  0.31145052  0.33789146  0.88466885     0.29700
H1008       H  0.23583223  0.48518108  0.74307084     0.30000
C1009       C  0.07265072  0.33259619  0.67263330     0.79200
N1010       N  0.05690855  0.35775019  0.64621255    -0.79100
C1011       C  0.07292898  0.37819169  0.63285342     0.81600
N1012       N  0.10405080  0.37333137  0.64637337    -0.79100
C1013       C  0.11964798  0.34878096  0.67259781     0.81700
N1014       N  0.10390081  0.32871733  0.68572128    -0.80800
C1015       C  0.32270967  0.45752991  0.67260507     0.79200
N1016       N  0.30707002  0.48272709  0.64615188    -0.79100
C1017       C  0.32318357  0.25291159  0.63267347     0.81600
N1018       N  0.35424181  0.24765398  0.64603952    -0.79100
C1019       C  0.36971505  0.47311899  0.67228891     0.81700
N1020       N  0.35392352  0.45336103  0.68557657    -0.80800
Zr1021     Zr  0.47606190  0.43460366  0.73637130     2.17500
O1022       O  0.46835359  0.37183168  0.74394435    -0.52400
O1023       O  0.41987855  0.44645224  0.70802237    -0.75600
O1024       O  0.46645618  0.41248489  0.78519358    -0.82400
O1025       O  0.49374530  0.42728924  0.65450847    -0.84100
O1026       O  0.49512890  0.44480743  0.83622393    -0.79700
O1027       O  0.46415959  0.40467723  0.67900770    -0.91400
O1028       O  0.41560942  0.25415728  0.68876872    -0.77300
O1029       O  0.47062942  0.48841940  0.76343147    -0.86800
O1030       O  0.46999895  0.48076239  0.69492919    -0.86500
O1031       O  0.02325986  0.44012183  0.79145759    -0.73300
O1032       O  0.02269745  0.43332880  0.72957052    -0.85400
Zr1033     Zr  0.05699676  0.29532545  0.77170166     2.26400
Zr1034     Zr  0.01825795  0.49550753  0.81846182     2.06300
Zr1035     Zr  0.01715771  0.48232162  0.68941842     2.10000
Zr1036     Zr  0.46429652  0.28454233  0.72168326     1.78800
O1037       O  0.05498099  0.45584542  0.67351872    -0.94200
O1038       O  0.44569869  0.31384573  0.76043335    -0.42000
O1039       O  0.01111812  0.28621553  0.71618869    -0.78600
O1040       O  0.01002924  0.29459076  0.77748554    -0.97300
O1041       O  0.06492892  0.49746764  0.81251090    -0.90600
O1042       O  0.06374251  0.49150046  0.74453188    -0.93500
C1043       C  0.40384598  0.47400521  0.69062461     1.00300
C1044       C  0.47372123  0.40472789  0.65493520     1.13200
C1045       C  0.47606994  0.41911050  0.81874360     1.04000
O1046       O  0.48743430  0.26625032  0.84668252    -0.95600
O1047       O  0.03774048  0.30299664  0.85156064    -0.91400
O1048       O  0.06921020  0.32522943  0.82936191    -0.84500
C1049       C  0.05815378  0.32574823  0.85211878     1.10600
O1050       O  0.10608767  0.39299626  0.80425627    -0.97600
Zr1051     Zr  0.06938256  0.44355839  0.78431397     1.88900
O1052       O  0.11323921  0.28503986  0.80022648    -0.74300
O1053       O  0.06690418  0.47526436  0.86807949    -0.53500
O1054       O  0.08051324  0.40910045  0.83793944    -0.98200
O1055       O  0.08692900  0.41117593  0.74621678    -0.55400
O1056       O  0.11729832  0.47589284  0.81598029    -0.74800
C1057       C  0.12907089  0.50673952  0.81612380     0.97600
O1058       O  0.05208142  0.36049738  0.76478308    -0.63600
O1059       O  0.47784131  0.25529474  0.63220126    -0.58400
O1060       O  0.06763206  0.31803145  0.72405130    -0.95100
O1061       O  0.03941752  0.28506062  0.67327403    -0.93500
O1062       O  0.41964709  0.32041729  0.68039111    -0.93900
O1063       O  0.46743832  0.32857842  0.68063867    -0.92600
C1064       C  0.05796208  0.31123672  0.69054857     1.16400
H1065       H  0.45232317  0.47594486  0.67200212     0.32400
H1066       H  0.00794023  0.31734250  0.78729619     0.43200
H1067       H  0.08164206  0.49333349  0.74025494     0.36700
H1068       H  0.02516629  0.41954013  0.80643780     0.33200
H1069       H  0.42682877  0.30000010  0.75630063     0.25000
H1070       H  0.07786950  0.49717938  0.88145290     0.30900
H1071       H  0.09778748  0.42252651  0.85733600     0.36900
H1072       H  0.40582386  0.32297598  0.69175336     0.31300
H1073       H  0.45972448  0.23891524  0.62433468     0.30200
H1074       H  0.05020111  0.42970460  0.67028333     0.31900
H1075       H  0.09634936  0.42978206  0.73729494     0.30800
H1076       H  0.48764093  0.34127244  0.69278765     0.34800
H1077       H  0.03620402  0.36397516  0.73958777     0.27600
H1078       H  0.44948471  0.36633429  0.72151340     0.31800
H1079       H  0.12691892  0.40400789  0.81825900     0.34700
H1080       H  0.47069863  0.27806692  0.63836160     0.27300
H1081       H  0.04138884  0.36835213  0.77874610     0.40100
H1082       H  0.46560614  0.26324070  0.82799022     0.30200
H1083       H  0.46077438  0.30808629  0.78545892     0.37800
H1084       H  0.06808190  0.40299344  0.72482269     0.29700
H1085       H  0.06088141  0.46202934  0.88424470     0.29700
H1086       H  0.48557666  0.35960250  0.74201100     0.30000
C1087       C  0.21069185  0.27359683  0.83648843     0.79200
N1088       N  0.17936505  0.27751134  0.82255997    -0.79100
C1089       C  0.16309634  0.25733311  0.83487503     0.81600
N1090       N  0.17819939  0.48254164  0.86099793    -0.79100
C1091       C  0.20940209  0.47782272  0.87563391     0.81700
N1092       N  0.22602198  0.49837916  0.86310388    -0.80800
C1093       C  0.45906410  0.33250458  0.58527582     0.79200
N1094       N  0.42780011  0.32866527  0.57209846    -0.79100
C1095       C  0.41202276  0.34873394  0.58517830     0.81600
N1096       N  0.42760624  0.37325370  0.61143929    -0.79100
C1097       C  0.45874293  0.37805796  0.62504635     0.81700
N1098       N  0.47479334  0.35760605  0.61174439    -0.80800
Zr1099     Zr  0.30569987  0.31000349  0.52129485     2.17500
O1100       O  0.31252049  0.49734071  0.51253719    -0.52400
O1101       O  0.36187829  0.32193217  0.54979628    -0.75600
O1102       O  0.31564574  0.28861654  0.97245358    -0.82400
O1103       O  0.28838576  0.30247308  0.60336509    -0.84100
O1104       O  0.28628035  0.32013707  0.92109065    -0.79700
O1105       O  0.31784120  0.27980164  0.57870521    -0.91400
O1106       O  0.36612715  0.37998861  0.56829079    -0.77300
O1107       O  0.31094550  0.36391178  0.99413169    -0.86800
O1108       O  0.31165614  0.35616461  0.56268489    -0.86500
O1109       O  0.25847536  0.31537082  0.96627238    -0.73300
O1110       O  0.25915051  0.30854105  0.52819968    -0.85400
Zr1111     Zr  0.22448341  0.42042971  0.98586500     2.26400
Zr1112     Zr  0.26333910  0.37070303  0.93913118     2.06300
Zr1113     Zr  0.26467842  0.35742425  0.56841117     2.10000
Zr1114     Zr  0.31714125  0.40997950  0.53575701     1.78800
O1115       O  0.22684060  0.33050838  0.58407594    -0.94200
O1116       O  0.33583707  0.43953031  0.99727801    -0.42000
O1117       O  0.27042752  0.41122910  0.54130548    -0.78600
O1118       O  0.27142597  0.41976684  0.97999131    -0.97300
O1119       O  0.21666010  0.37260985  0.94511989    -0.90600
O1120       O  0.21800192  0.36657290  0.51333050    -0.93500
C1121       C  0.37788465  0.34965531  0.56683714     1.00300
C1122       C  0.30832737  0.27981486  0.60284805     1.13200
C1123       C  0.30575172  0.29486961  0.93878475     1.04000
O1124       O  0.29444849  0.39140565  0.91132439    -0.95600
O1125       O  0.24389242  0.42803237  0.90586348    -0.91400
O1126       O  0.21243605  0.45014299  0.92813682    -0.84500
C1127       C  0.22346137  0.45070982  0.90534922     1.10600
O1128       O  0.17501313  0.51887153  0.95378972    -0.97600
Zr1129     Zr  0.21231806  0.31875402  0.97342586     1.88900
O1130       O  0.16819997  0.41037841  0.95721527    -0.74300
O1131       O  0.21436016  0.35089300  0.88971061    -0.53500
O1132       O  0.20131612  0.28420911  0.91987075    -0.98200
O1133       O  0.19516208  0.28577586  0.51165711    -0.55400
O1134       O  0.16428963  0.35107854  0.94206572    -0.74800
C1135       C  0.15243509  0.38193681  0.94167594     0.97600
O1136       O  0.22923775  0.48560400  0.99254314    -0.63600
O1137       O  0.30383524  0.38060016  0.62554176    -0.58400
O1138       O  0.21381416  0.44286329  0.53372346    -0.95100
O1139       O  0.24237922  0.41015252  0.58459861    -0.93500
O1140       O  0.36084420  0.44677461  0.57747563    -0.93900
O1141       O  0.31306563  0.45399518  0.57619562    -0.92600
C1142       C  0.22364697  0.43618791  0.56729887     1.16400
H1143       H  0.32939648  0.35147626  0.58559815     0.32400
H1144       H  0.27350705  0.44248125  0.97012098     0.43200
H1145       H  0.20011510  0.36833369  0.51764367     0.36700
H1146       H  0.25665268  0.29475686  0.95135803     0.33200
H1147       H  0.35511171  0.42641319  0.50194266     0.25000
H1148       H  0.20343165  0.37289080  0.87647896     0.30900
H1149       H  0.18389809  0.29745328  0.90046936     0.36900
H1150       H  0.37512181  0.44928581  0.56671191     0.31300
H1151       H  0.32192933  0.36417239  0.63349180     0.30200
H1152       H  0.23229700  0.30457808  0.58834265     0.31900
H1153       H  0.18514397  0.30414968  0.02004441     0.30800
H1154       H  0.29309215  0.46704272  0.56348780     0.34800
H1155       H  0.24529799  0.48893520  0.51832317     0.27600
H1156       H  0.33135163  0.49146305  0.53485346     0.31800
H1157       H  0.15433944  0.53017449  0.93957119     0.34700
H1158       H  0.31102173  0.40328543  0.61927803     0.27300
H1159       H  0.23997329  0.24339753  0.97856983     0.40100
H1160       H  0.31622387  0.38811712  0.93007285     0.30200
H1161       H  0.32104931  0.43330719  0.97226576     0.37800
H1162       H  0.21408144  0.27845606  0.53340385     0.29700
H1163       H  0.22008960  0.33760923  0.87332398     0.29700
H1164       H  0.29510747  0.48534562  0.01442184     0.30000
C1165       C  0.07070354  0.39808029  0.92146718     0.79200
N1166       N  0.10201363  0.40219558  0.93539297    -0.79100
C1167       C  0.11834671  0.38244433  0.92284686     0.81600
N1168       N  0.10333264  0.35781098  0.89652127    -0.79100
C1169       C  0.07213866  0.35287286  0.88188813     0.81700
N1170       N  0.05546741  0.37304624  0.89464220    -0.80800
C1171       C  0.32091816  0.27370609  0.92125264     0.79200
N1172       N  0.35225053  0.27757565  0.93519320    -0.79100
C1173       C  0.36850161  0.25740066  0.92285087     0.81600
N1174       N  0.35339301  0.48256070  0.89671934    -0.79100
C1175       C  0.32218309  0.47789943  0.88209094     0.81700
N1176       N  0.30559692  0.49845974  0.89466115    -0.80800
C1177       C  0.20892616  0.45744910  0.58530873     0.79200
N1178       N  0.22460028  0.48264430  0.61174875    -0.77900
C1179       C  0.20854459  0.25286873  0.62526420     0.81600
N1180       N  0.17745743  0.24776351  0.61182442    -0.79100
C1181       C  0.16193120  0.47319879  0.58558830     0.81700
N1182       N  0.17770477  0.45335099  0.57233802    -0.80800
Zr1183     Zr  0.05556962  0.43471754  0.52145152     2.17500
O1184       O  0.06335786  0.37197930  0.51392827    -0.52400
O1185       O  0.11175374  0.44656674  0.54987464    -0.75600
O1186       O  0.06510051  0.41254915  0.97258105    -0.82400
O1187       O  0.03796410  0.42749975  0.60344476    -0.84100
O1188       O  0.03637793  0.44479189  0.92151058    -0.79700
O1189       O  0.06742633  0.40479606  0.57882930    -0.91400
O1190       O  0.11605770  0.25440997  0.56899244    -0.77300
O1191       O  0.06095778  0.48852324  0.99436648    -0.86800
O1192       O  0.06160191  0.48089046  0.56284987    -0.86500
O1193       O  0.00841414  0.44008164  0.96643580    -0.73300
O1194       O  0.00899565  0.43343143  0.52828225    -0.85400
Zr1195     Zr  0.47459632  0.29534210  0.98606577     2.26400
Zr1196     Zr  0.01334075  0.49545997  0.93935672     2.06300
Zr1197     Zr  0.01458470  0.48240885  0.56844289     2.10000
Zr1198     Zr  0.06730825  0.28473694  0.53617990     1.78800
O1199       O  0.47709504  0.45587774  0.58478949    -0.94200
O1200       O  0.08584543  0.31418510  0.99739910    -0.42000
O1201       O  0.02052372  0.28626832  0.54162012    -0.78600
O1202       O  0.02156141  0.29462541  0.98023254    -0.97300
O1203       O  0.46666964  0.49748970  0.94527542    -0.90600
O1204       O  0.46802401  0.49146318  0.51348605    -0.93500
C1205       C  0.12779342  0.47413542  0.56722530     1.00300
C1206       C  0.05793386  0.40488719  0.60296659     1.13200
C1207       C  0.05546145  0.41912187  0.93901258     1.04000
O1208       O  0.04405570  0.26594814  0.91096849    -0.95600
O1209       O  0.49375802  0.30298589  0.90617809    -0.91400
O1210       O  0.46235463  0.32530024  0.92843468    -0.84500
C1211       C  0.47337592  0.32577570  0.90564657     1.10600
O1212       O  0.42540822  0.39319252  0.95364554    -0.97600
Zr1213     Zr  0.46226255  0.44360395  0.97351232     1.88900
O1214       O  0.41836199  0.28506092  0.95750550    -0.74300
O1215       O  0.46459125  0.47534238  0.88969275    -0.53500
O1216       O  0.45122507  0.40902839  0.91998175    -0.98200
O1217       O  0.44484624  0.41126177  0.51190304    -0.55400
O1218       O  0.41435672  0.47590459  0.94154524    -0.74800
C1219       C  0.40256956  0.50669035  0.94159743     0.97600
O1220       O  0.47947851  0.36051248  0.99306687    -0.63600
O1221       O  0.05387596  0.25532278  0.62565115    -0.58400
O1222       O  0.46400655  0.31787612  0.53384697    -0.95100
O1223       O  0.49248519  0.28516787  0.58473473    -0.93500
O1224       O  0.11173762  0.32074038  0.57774374    -0.93900
O1225       O  0.06407489  0.32877551  0.57715894    -0.92600
C1226       C  0.47378650  0.31119248  0.56738855     1.16400
H1227       H  0.07927628  0.47610785  0.58578693     0.32400
H1228       H  0.02365678  0.31736926  0.97041155     0.43200
H1229       H  0.45014836  0.49329934  0.51780790     0.36700
H1230       H  0.00651274  0.41947199  0.95148876     0.33200
H1231       H  0.10489104  0.30030913  0.50170766     0.25000
H1232       H  0.45367808  0.49727412  0.87630235     0.30900
H1233       H  0.43388526  0.42235239  0.90056229     0.36900
H1234       H  0.12565553  0.32341804  0.56651829     0.31300
H1235       H  0.07195700  0.23888309  0.63354610     0.30200
H1236       H  0.48172317  0.42969473  0.58773801     0.31900
H1237       H  0.43523899  0.42973351  0.02045092     0.30800
H1238       H  0.04388175  0.34147660  0.56493772     0.34800
H1239       H  0.49561755  0.36385966  0.51853413     0.27600
H1240       H  0.08217216  0.36651707  0.53642305     0.31800
H1241       H  0.40463794  0.40424408  0.93935148     0.34700
H1242       H  0.06107416  0.27804746  0.61947632     0.27300
H1243       H  0.49007051  0.36843365  0.97901461     0.40100
H1244       H  0.06588591  0.26308122  0.92970091     0.30200
H1245       H  0.07099969  0.30799157  0.97239939     0.37800
H1246       H  0.46371783  0.40298138  0.53321348     0.29700
H1247       H  0.47056589  0.46202993  0.87352618     0.29700
H1248       H  0.04608067  0.35973546  0.01556285     0.30000
C1249       C  0.46084440  0.64807150  0.33632301     0.79200
N1250       N  0.47608297  0.62302155  0.36314131    -0.79100
C1251       C  0.45941720  0.60285176  0.37591323     0.81600
N1252       N  0.42822519  0.60781900  0.36129904    -0.79100
C1253       C  0.41321606  0.63248509  0.33499831     0.81700
N1254       N  0.42954353  0.65221941  0.32243628    -0.80800
Zr1255     Zr  0.22592002  0.56004141  0.23649932     2.17500
O1256       O  0.21854147  0.74756056  0.24507326    -0.52400
O1257       O  0.16974188  0.57200592  0.20797744    -0.75600
O1258       O  0.21608690  0.53843755  0.28537001    -0.82400
O1259       O  0.24348058  0.55237718  0.15462602    -0.84100
O1260       O  0.24525912  0.57012746  0.33668804    -0.79700
O1261       O  0.21387487  0.52982338  0.17914048    -0.91400
O1262       O  0.16546643  0.62998260  0.18926990    -0.77300
O1263       O  0.22059444  0.61384206  0.26362870    -0.86800
O1264       O  0.21998136  0.60618088  0.19508274    -0.86500
O1265       O  0.27308596  0.56542106  0.29151536    -0.73300
O1266       O  0.27251859  0.55854592  0.22967716    -0.85400
Zr1267     Zr  0.30706519  0.67047054  0.27196167     2.26400
Zr1268     Zr  0.26817126  0.62074305  0.31865668     2.06300
Zr1269     Zr  0.26701481  0.60744435  0.18946897     2.10000
Zr1270     Zr  0.21441652  0.65998861  0.22196724     1.78800
O1271       O  0.30498971  0.58072500  0.17391157    -0.94200
O1272       O  0.19572136  0.68943327  0.26056228    -0.42000
O1273       O  0.26117914  0.66125365  0.21652015    -0.78600
O1274       O  0.26010395  0.66980173  0.27780027    -0.97300
O1275       O  0.31486666  0.62263893  0.31269810    -0.90600
O1276       O  0.31362088  0.61666149  0.24460237    -0.93500
C1277       C  0.15372114  0.59968259  0.19084156     1.00300
C1278       C  0.22345620  0.52979035  0.15506044     1.13200
C1279       C  0.22590944  0.54474357  0.31902231     1.04000
O1280       O  0.23689800  0.64147967  0.34625583    -0.95600
O1281       O  0.28760604  0.67813980  0.35185488    -0.91400
O1282       O  0.31917130  0.70015251  0.32968836    -0.84500
C1283       C  0.30810548  0.70075757  0.35243209     1.10600
O1284       O  0.35633920  0.76864126  0.30426609    -0.97600
Zr1285     Zr  0.31925649  0.56878877  0.28441417     1.88900
O1286       O  0.36336452  0.66048875  0.30075780    -0.74300
O1287       O  0.31713234  0.60109532  0.36821829    -0.53500
O1288       O  0.33022469  0.53434755  0.33801800    -0.98200
O1289       O  0.33672112  0.53608859  0.24642698    -0.55400
O1290       O  0.36728183  0.60110871  0.31563971    -0.74800
C1291       C  0.37912982  0.63200244  0.31617092     0.97600
O1292       O  0.30199510  0.73562469  0.26510219    -0.63600
O1293       O  0.22780957  0.63015061  0.13213404    -0.58400
O1294       O  0.31775587  0.69303994  0.22421238    -0.95100
O1295       O  0.28925737  0.66029407  0.17333909    -0.93500
O1296       O  0.17074141  0.69683822  0.18029403    -0.93900
O1297       O  0.21838180  0.70412337  0.18157856    -0.92600
C1298       C  0.30796155  0.68635582  0.19064438     1.16400
H1299       H  0.20226954  0.60147605  0.17214848     0.32400
H1300       H  0.25799770  0.69253414  0.28762594     0.43200
H1301       H  0.33152500  0.61845259  0.24032784     0.36700
H1302       H  0.27492106  0.54480598  0.30643211     0.33200
H1303       H  0.17647636  0.67611852  0.25588874     0.25000
H1304       H  0.32804059  0.62313471  0.38137416     0.30900
H1305       H  0.34747545  0.54776671  0.35744918     0.36900
H1306       H  0.15647016  0.69934463  0.19106729     0.31300
H1307       H  0.20989373  0.61344400  0.12415806     0.30200
H1308       H  0.29973833  0.55472689  0.16990379     0.31900
H1309       H  0.34654557  0.55453993  0.23784747     0.30800
H1310       H  0.23843188  0.71702877  0.19426067     0.34800
H1311       H  0.28624734  0.73910075  0.23985425     0.27600
H1312       H  0.19956542  0.74192983  0.22281687     0.31800
H1313       H  0.37708414  0.77985471  0.31828557     0.34700
H1314       H  0.22031710  0.65269586  0.13825169     0.27300
H1315       H  0.29114903  0.49336297  0.27885648     0.40100
H1316       H  0.21514718  0.63785737  0.32756593     0.30200
H1317       H  0.21047242  0.68312142  0.28556208     0.37800
H1318       H  0.31785707  0.52833905  0.22482645     0.29700
H1319       H  0.31139890  0.58789085  0.38464011     0.29700
H1320       H  0.23565296  0.73523646  0.24299603     0.30000
C1321       C  0.07261603  0.58259132  0.17268430     0.79200
N1322       N  0.05684506  0.60772475  0.14624942    -0.79100
C1323       C  0.07283956  0.62814840  0.13284277     0.81600
N1324       N  0.10396093  0.62329207  0.14633738    -0.79100
C1325       C  0.11958379  0.59876521  0.17257749     0.81700
N1326       N  0.10386229  0.57871983  0.18574416    -0.80800
C1327       C  0.32271829  0.70761398  0.17265878     0.79200
N1328       N  0.30706545  0.73276143  0.14615441    -0.79100
C1329       C  0.32319995  0.50290779  0.13263376     0.81600
N1330       N  0.35427036  0.49772926  0.14606235    -0.79100
C1331       C  0.36971788  0.72321432  0.17231756     0.81700
N1332       N  0.35393697  0.70347181  0.18563504    -0.80800
Zr1333     Zr  0.47605089  0.68465745  0.23632610     2.17500
O1334       O  0.46845645  0.62188883  0.24397565    -0.52400
O1335       O  0.41987116  0.69648176  0.20785878    -0.75600
O1336       O  0.46644107  0.66253071  0.28518388    -0.82400
O1337       O  0.49377417  0.67730140  0.15444720    -0.84100
O1338       O  0.49512500  0.69481448  0.33623972    -0.79700
O1339       O  0.46412740  0.65478137  0.17890427    -0.91400
O1340       O  0.41562874  0.50439377  0.18903173    -0.77300
O1341       O  0.47063118  0.73849477  0.26337400    -0.86800
O1342       O  0.47004688  0.73082065  0.19490583    -0.86500
O1343       O  0.02323046  0.69011494  0.29142637    -0.73300
O1344       O  0.02267320  0.68334793  0.22954903    -0.85400
Zr1345     Zr  0.05705252  0.54523421  0.27178089     2.26400
Zr1346     Zr  0.01826177  0.74547837  0.31849008     2.06300
Zr1347     Zr  0.01710425  0.73235142  0.18938680     2.10000
Zr1348     Zr  0.46441147  0.53467070  0.22169598     1.78800
O1349       O  0.05473994  0.70589008  0.17317959    -0.94200
O1350       O  0.44586994  0.56402084  0.26047267    -0.42000
O1351       O  0.01117691  0.53615836  0.21627874    -0.78600
O1352       O  0.01010483  0.54449050  0.27761398    -0.97300
O1353       O  0.06494967  0.74744669  0.31255968    -0.90600
O1354       O  0.06370259  0.74150508  0.24451557    -0.93500
C1355       C  0.40384552  0.72411292  0.19064192     1.00300
C1356       C  0.47370871  0.65478730  0.15484439     1.13200
C1357       C  0.47606889  0.66911786  0.31875234     1.04000
O1358       O  0.48745799  0.51594201  0.34673094    -0.95600
O1359       O  0.03782699  0.55280769  0.35166532    -0.91400
O1360       O  0.06915531  0.57522810  0.32935607    -0.84500
C1361       C  0.05815349  0.57565862  0.35216182     1.10600
O1362       O  0.10607488  0.64300102  0.30430536    -0.97600
Zr1363     Zr  0.06937073  0.69356300  0.28431255     1.88900
O1364       O  0.11329898  0.53498313  0.30042017    -0.74300
O1365       O  0.06694993  0.72537991  0.36814729    -0.53500
O1366       O  0.08046532  0.65918595  0.33798394    -0.98200
O1367       O  0.08697089  0.66123052  0.24624140    -0.55400
O1368       O  0.11732243  0.72584803  0.31595868    -0.74800
C1369       C  0.12910577  0.75668847  0.31610759     0.97600
O1370       O  0.05215379  0.61040027  0.26465961    -0.63600
O1371       O  0.47788626  0.50536938  0.13219982    -0.58400
O1372       O  0.06771347  0.56789200  0.22413900    -0.95100
O1373       O  0.03935426  0.53508807  0.17328431    -0.93500
O1374       O  0.41992722  0.57054531  0.18006653    -0.93900
O1375       O  0.46774677  0.57884356  0.18086605    -0.92600
C1376       C  0.05795968  0.56119761  0.19060337     1.16400
H1377       H  0.45235123  0.72605196  0.17198045     0.32400
H1378       H  0.00801025  0.56722916  0.28744165     0.43200
H1379       H  0.08159358  0.74333749  0.24022353     0.36700
H1380       H  0.02511736  0.66951360  0.30637691     0.33200
H1381       H  0.42674193  0.55053298  0.25596768     0.25000
H1382       H  0.07788542  0.74733563  0.38146110     0.30900
H1383       H  0.09775966  0.67259782  0.35737163     0.36900
H1384       H  0.40610326  0.57341171  0.19139289     0.31300
H1385       H  0.45976746  0.48898973  0.12430856     0.30200
H1386       H  0.05013874  0.67969960  0.17026302     0.31900
H1387       H  0.09642859  0.67984990  0.23737785     0.30800
H1388       H  0.48797366  0.59147972  0.19307744     0.34800
H1389       H  0.03623661  0.61385455  0.23948044     0.27600
H1390       H  0.44970220  0.61629506  0.22146384     0.31800
H1391       H  0.12691463  0.65402272  0.31822042     0.34700
H1392       H  0.47074868  0.52812839  0.13839286     0.27300
H1393       H  0.04153216  0.61835661  0.27866917     0.40100
H1394       H  0.46563838  0.51285495  0.32804137     0.30200
H1395       H  0.46072684  0.55779979  0.28545979     0.37800
H1396       H  0.06812752  0.65310727  0.22481195     0.29700
H1397       H  0.06096020  0.71218315  0.38436082     0.29700
H1398       H  0.48580636  0.60972882  0.24225862     0.30000
C1399       C  0.21074789  0.52353870  0.33654057     0.79200
N1400       N  0.17941497  0.52739591  0.32257418    -0.79100
C1401       C  0.16315303  0.50723209  0.33490683     0.81600
N1402       N  0.17824038  0.73252674  0.36103864    -0.79100
C1403       C  0.20945472  0.72786753  0.37574808     0.81700
N1404       N  0.22609172  0.74842988  0.36324504    -0.80800
C1405       C  0.45902298  0.58256372  0.08515424     0.79200
N1406       N  0.42776676  0.57869257  0.07202623    -0.79100
C1407       C  0.41200996  0.59873726  0.08515166     0.81600
N1408       N  0.42760332  0.62325145  0.11141066    -0.79100
C1409       C  0.45872622  0.62810304  0.12495814     0.81700
N1410       N  0.47475864  0.60768386  0.11160546    -0.80800
Zr1411     Zr  0.30571289  0.56004418  0.02131010     2.17500
O1412       O  0.31227375  0.74726648  0.01253660    -0.52400
O1413       O  0.36186762  0.57200414  0.04964513    -0.75600
O1414       O  0.31569711  0.53855433  0.47249456    -0.82400
O1415       O  0.28838709  0.55244006  0.10331296    -0.84100
O1416       O  0.28633890  0.57010126  0.42114269    -0.79700
O1417       O  0.31789299  0.52981125  0.07869771    -0.91400
O1418       O  0.36611636  0.62989316  0.06858232    -0.77300
O1419       O  0.31090015  0.61382905  0.49406062    -0.86800
O1420       O  0.31166208  0.60615334  0.06276613    -0.86500
O1421       O  0.25847572  0.56530213  0.46627894    -0.73300
O1422       O  0.25916034  0.55857688  0.02819981    -0.85400
Zr1423     Zr  0.22447017  0.67039078  0.48592698     2.26400
Zr1424     Zr  0.26326365  0.62063157  0.43909555     2.06300
Zr1425     Zr  0.26466194  0.60743026  0.06842678     2.10000
Zr1426     Zr  0.31719714  0.65999192  0.03590817     1.78800
O1427       O  0.22678500  0.58040566  0.08396426    -0.94200
O1428       O  0.33569681  0.68961256  0.49710369    -0.42000
O1429       O  0.27044465  0.66126672  0.04136829    -0.78600
O1430       O  0.27136891  0.66971585  0.47994642    -0.97300
O1431       O  0.21661606  0.62256843  0.44515073    -0.90600
O1432       O  0.21801358  0.61662898  0.01332304    -0.93500
C1433       C  0.37787525  0.59964318  0.06687960     1.00300
C1434       C  0.30834733  0.52980031  0.10280970     1.13200
C1435       C  0.30580993  0.54482328  0.43882891     1.04000
O1436       O  0.29412332  0.64142395  0.41103113    -0.95600
O1437       O  0.24382281  0.67798596  0.40588831    -0.91400
O1438       O  0.21254512  0.70030286  0.42832756    -0.84500
C1439       C  0.22349991  0.70077248  0.40547123     1.10600
O1440       O  0.17516506  0.76866995  0.45354576    -0.97600
Zr1441     Zr  0.21234588  0.56869662  0.47347482     1.88900
O1442       O  0.16818859  0.66031055  0.45718359    -0.74300
O1443       O  0.21428189  0.60089880  0.38961872    -0.53500
O1444       O  0.20147422  0.53413367  0.41997295    -0.98200
O1445       O  0.19526399  0.53577671  0.01167052    -0.55400
O1446       O  0.16429364  0.60097722  0.44213936    -0.74800
C1447       C  0.15243258  0.63184400  0.44170229     0.97600
O1448       O  0.22935413  0.73552307  0.49310906    -0.63600
O1449       O  0.30374858  0.63037368  0.12570617    -0.58400
O1450       O  0.21398301  0.69301728  0.03377838    -0.95100
O1451       O  0.24239363  0.66019043  0.08461854    -0.93500
O1452       O  0.36086265  0.69691531  0.07751091    -0.93900
O1453       O  0.31324086  0.70398357  0.07642930    -0.92600
C1454       C  0.22373447  0.68628872  0.06733088     1.16400
H1455       H  0.32937183  0.60143533  0.08569942     0.32400
H1456       H  0.27345071  0.69243860  0.47009144     0.43200
H1457       H  0.20011933  0.61839937  0.01762055     0.36700
H1458       H  0.25668124  0.54468502  0.45137827     0.33200
H1459       H  0.35526065  0.67653205  0.00225082     0.25000
H1460       H  0.20335137  0.62293802  0.37648148     0.30900
H1461       H  0.18412265  0.54740809  0.40052179     0.36900
H1462       H  0.37522606  0.69920581  0.06684154     0.31300
H1463       H  0.32181511  0.61390622  0.13363108     0.30200
H1464       H  0.23230914  0.55449590  0.08829010     0.31900
H1465       H  0.18491485  0.55414847  0.51983967     0.30800
H1466       H  0.29322201  0.71696140  0.06378973     0.34800
H1467       H  0.24524719  0.73911683  0.01789729     0.27600
H1468       H  0.33114682  0.74137159  0.03479886     0.31800
H1469       H  0.15442174  0.77993193  0.43966446     0.34700
H1470       H  0.31100222  0.65307676  0.11955732     0.27300
H1471       H  0.24006677  0.49348480  0.47915714     0.40100
H1472       H  0.31593066  0.63837402  0.42977115     0.30200
H1473       H  0.32095889  0.68325979  0.47211153     0.37800
H1474       H  0.21418969  0.52837313  0.03337003     0.29700
H1475       H  0.22001312  0.58774791  0.37316501     0.29700
H1476       H  0.29523742  0.73530591  0.51444992     0.30000
C1477       C  0.07069858  0.64805134  0.42145765     0.79200
N1478       N  0.10201418  0.65212668  0.43540718    -0.79100
C1479       C  0.11834517  0.63234469  0.42288117     0.81600
N1480       N  0.10332664  0.60770646  0.39656512    -0.79100
C1481       C  0.07213002  0.60279005  0.38192294     0.81700
N1482       N  0.05545674  0.62300433  0.39464611    -0.80800
C1483       C  0.32096647  0.52364127  0.42128554     0.79200
N1484       N  0.35230002  0.52749765  0.43521027    -0.79100
C1485       C  0.36854516  0.50727998  0.42288767     0.81600
N1486       N  0.35340636  0.73255486  0.39677587    -0.79100
C1487       C  0.32219795  0.72785393  0.38215859     0.81700
N1488       N  0.30559734  0.74844761  0.39468168    -0.80800
C1489       C  0.20897536  0.70754790  0.08530638     0.79200
N1490       N  0.22462934  0.73271979  0.11177850    -0.77900
C1491       C  0.20856332  0.50293388  0.12520402     0.81600
N1492       N  0.17748093  0.49778623  0.11177270    -0.79100
C1493       C  0.16195766  0.72324338  0.08557022     0.81700
N1494       N  0.17774773  0.70344131  0.07230260    -0.80800
Zr1495     Zr  0.05558857  0.68475134  0.02149887     2.17500
O1496       O  0.06348187  0.62206827  0.01390141    -0.52400
O1497       O  0.11178374  0.69650351  0.05010428    -0.75600
O1498       O  0.06508825  0.66251280  0.47255671    -0.82400
O1499       O  0.03784257  0.67744551  0.10341405    -0.84100
O1500       O  0.03641196  0.69482187  0.42151704    -0.79700
O1501       O  0.06735907  0.65480114  0.07884721    -0.91400
O1502       O  0.11608902  0.50446539  0.06867125    -0.77300
O1503       O  0.06096121  0.73848774  0.49435588    -0.86800
O1504       O  0.06160069  0.73095397  0.06286876    -0.86500
O1505       O  0.00839030  0.69011677  0.46641989    -0.73300
O1506       O  0.00901222  0.68340323  0.02832583    -0.85400
Zr1507     Zr  0.47464155  0.54525581  0.48615922     2.26400
Zr1508     Zr  0.01334509  0.74548260  0.43935809     2.06300
Zr1509     Zr  0.01457696  0.73242524  0.06846660     2.10000
Zr1510     Zr  0.06726597  0.53472091  0.03606760     1.78800
O1511       O  0.47687801  0.70584414  0.08449178    -0.94200
O1512       O  0.08604720  0.56392956  0.49742047    -0.42000
O1513       O  0.02051668  0.53626399  0.04157267    -0.78600
O1514       O  0.02155840  0.54460029  0.48023150    -0.97300
O1515       O  0.46669621  0.74754442  0.44538453    -0.90600
O1516       O  0.46797906  0.74144661  0.01337104    -0.93500
C1517       C  0.12781928  0.72417289  0.06721035     1.00300
C1518       C  0.05783393  0.65485152  0.10295649     1.13200
C1519       C  0.05546537  0.66911558  0.43899955     1.04000
O1520       O  0.04413407  0.51610066  0.41109617    -0.95600
O1521       O  0.49371141  0.55283791  0.40615926    -0.91400
O1522       O  0.46244978  0.57529455  0.42854897    -0.84500
C1523       C  0.47340625  0.57570919  0.40569393     1.10600
O1524       O  0.42551545  0.64314301  0.45397524    -0.97600
Zr1525     Zr  0.46226904  0.69365601  0.47359664     1.88900
O1526       O  0.41840779  0.53491337  0.45763559    -0.74300
O1527       O  0.46461335  0.72535581  0.38987072    -0.53500
O1528       O  0.45120319  0.65907362  0.42004827    -0.98200
O1529       O  0.44482017  0.66108945  0.01166542    -0.55400
O1530       O  0.41438372  0.72601129  0.44148909    -0.74800
C1531       C  0.40257901  0.75676909  0.44162230     0.97600
O1532       O  0.47958545  0.61040724  0.49330068    -0.63600
O1533       O  0.05392755  0.50552690  0.12556498    -0.58400
O1534       O  0.46397997  0.56794748  0.03372577    -0.95100
O1535       O  0.49236901  0.53515908  0.08457901    -0.93500
O1536       O  0.11169274  0.57064807  0.07775832    -0.93900
O1537       O  0.06373828  0.57879961  0.07685287    -0.92600
C1538       C  0.47372944  0.56123622  0.06725660     1.16400
H1539       H  0.07930140  0.72619508  0.08579009     0.32400
H1540       H  0.02364139  0.56734140  0.47039747     0.43200
H1541       H  0.45009213  0.74326176  0.01767367     0.36700
H1542       H  0.00648931  0.66951945  0.45146135     0.33200
H1543       H  0.10493114  0.55073957  0.00181198     0.25000
H1544       H  0.45368700  0.74728156  0.37647814     0.30900
H1545       H  0.43381884  0.67235433  0.40064035     0.36900
H1546       H  0.12566220  0.57331171  0.06659870     0.31300
H1547       H  0.07202315  0.48910617  0.13348752     0.30200
H1548       H  0.48163200  0.67969678  0.08769587     0.31900
H1549       H  0.43543476  0.68003110  0.52077898     0.30800
H1550       H  0.04366013  0.59169906  0.06440924     0.34800
H1551       H  0.49550294  0.61389416  0.01830914     0.27600
H1552       H  0.08212458  0.61649967  0.03653325     0.31800
H1553       H  0.40474002  0.65411181  0.43949684     0.34700
H1554       H  0.06109595  0.52823227  0.11931897     0.27300
H1555       H  0.49021358  0.61833718  0.47929029     0.40100
H1556       H  0.06595588  0.51314175  0.42982249     0.30200
H1557       H  0.07093400  0.55828992  0.47237609     0.37800
H1558       H  0.46368942  0.65309448  0.03313473     0.29700
H1559       H  0.47055766  0.71201601  0.37368946     0.29700
H1560       H  0.04603825  0.60966387  0.51561481     0.30000
C1561       C  0.46079209  0.64811848  0.83626858     0.79200
N1562       N  0.47603167  0.62306032  0.86306632    -0.79100
C1563       C  0.45937309  0.60288742  0.87583490     0.81600
N1564       N  0.42818655  0.60785974  0.86124591    -0.79100
C1565       C  0.41317524  0.63253241  0.83495970     0.81700
N1566       N  0.42949223  0.65227071  0.82238733    -0.80800
Zr1567     Zr  0.22598261  0.56004587  0.73652423     2.17500
O1568       O  0.21908041  0.74734108  0.74539260    -0.52400
O1569       O  0.16982225  0.57198965  0.70804432    -0.75600
O1570       O  0.21617389  0.53835800  0.78537631    -0.82400
O1571       O  0.24353264  0.55227553  0.65467841    -0.84100
O1572       O  0.24515508  0.57025280  0.83660800    -0.79700
O1573       O  0.21388527  0.52981339  0.67917629    -0.91400
O1574       O  0.16553548  0.62994602  0.68929235    -0.77300
O1575       O  0.22065484  0.61384242  0.76365109    -0.86800
O1576       O  0.22001176  0.60618087  0.69509038    -0.86500
O1577       O  0.27315310  0.56540929  0.79152896    -0.73300
O1578       O  0.27254695  0.55856130  0.72963412    -0.85400
Zr1579     Zr  0.30706699  0.67050216  0.77187620     2.26400
Zr1580     Zr  0.26825308  0.62073827  0.81864735     2.06300
Zr1581     Zr  0.26700388  0.60744261  0.68939429     2.10000
Zr1582     Zr  0.21445940  0.65998563  0.72198818     1.78800
O1583       O  0.30488745  0.58089195  0.67359176    -0.94200
O1584       O  0.19586274  0.68922955  0.76076688    -0.42000
O1585       O  0.26118105  0.66125558  0.71645639    -0.78600
O1586       O  0.26014989  0.66983173  0.77780013    -0.97300
O1587       O  0.31492362  0.62268388  0.81264578    -0.90600
O1588       O  0.31361934  0.61668524  0.74451294    -0.93500
C1589       C  0.15379968  0.59964532  0.69087770     1.00300
C1590       C  0.22347789  0.52973042  0.65511018     1.13200
C1591       C  0.22589382  0.54477895  0.81898687     1.04000
O1592       O  0.23721396  0.64123289  0.84660949    -0.95600
O1593       O  0.28776415  0.67809546  0.85188722    -0.91400
O1594       O  0.31911872  0.70033501  0.82952381    -0.84500
C1595       C  0.30814702  0.70082947  0.85235866     1.10600
O1596       O  0.35627675  0.76852309  0.80447567    -0.97600
Zr1597     Zr  0.31928028  0.56882703  0.78434869     1.88900
O1598       O  0.36334298  0.66050051  0.80065039    -0.74300
O1599       O  0.31716629  0.60077810  0.86806915    -0.53500
O1600       O  0.33024709  0.53422377  0.83785291    -0.98200
O1601       O  0.33677253  0.53620168  0.74635392    -0.55400
O1602       O  0.36725678  0.60117799  0.81573817    -0.74800
C1603       C  0.37910083  0.63204651  0.81615896     0.97600
O1604       O  0.30206070  0.73563923  0.76479211    -0.63600
O1605       O  0.22768437  0.63009528  0.63209033    -0.58400
O1606       O  0.31779294  0.69299257  0.72414933    -0.95100
O1607       O  0.28924192  0.66029040  0.67325947    -0.93500
O1608       O  0.17077742  0.69695161  0.68051829    -0.93900
O1609       O  0.21815549  0.70417231  0.68147114    -0.92600
C1610       C  0.30797225  0.68632672  0.69057865     1.16400
H1611       H  0.20229031  0.60146073  0.67217014     0.32400
H1612       H  0.25804501  0.69255755  0.78763916     0.43200
H1613       H  0.33152046  0.61847705  0.74023157     0.36700
H1614       H  0.27498641  0.54481197  0.80646628     0.33200
H1615       H  0.17657462  0.67596298  0.75600518     0.25000
H1616       H  0.32816495  0.62275770  0.88127192     0.30900
H1617       H  0.34756167  0.54754828  0.85729974     0.36900
H1618       H  0.15644135  0.69918329  0.69123126     0.31300
H1619       H  0.20981064  0.61332662  0.62413444     0.30200
H1620       H  0.29985216  0.55482475  0.66991878     0.31900
H1621       H  0.34658001  0.55467650  0.73777746     0.30800
H1622       H  0.23836068  0.71681916  0.69386475     0.34800
H1623       H  0.28622620  0.73905761  0.73957146     0.27600
H1624       H  0.19988221  0.74166766  0.72340199     0.31800
H1625       H  0.37703227  0.77967384  0.81860414     0.34700
H1626       H  0.22015206  0.65259661  0.63823090     0.27300
H1627       H  0.29124538  0.49343478  0.77876212     0.40100
H1628       H  0.21543108  0.63773874  0.82795793     0.30200
H1629       H  0.21059051  0.68273158  0.78572194     0.37800
H1630       H  0.31791047  0.52844825  0.72475442     0.29700
H1631       H  0.31138862  0.58760980  0.88447380     0.29700
H1632       H  0.23599552  0.73512901  0.74281504     0.30000
C1633       C  0.07268537  0.58256626  0.67267340     0.79200
N1634       N  0.05693677  0.60768637  0.64621858    -0.79100
C1635       C  0.07294838  0.62808350  0.63281630     0.81600
N1636       N  0.10406629  0.62321333  0.64632402    -0.79100
C1637       C  0.11967035  0.59869981  0.67258174     0.81700
N1638       N  0.10393344  0.57867614  0.68574851    -0.80800
C1639       C  0.32273072  0.70758359  0.67261326     0.79200
N1640       N  0.30708866  0.73276575  0.64614693    -0.79100
C1641       C  0.32313795  0.50286582  0.63260651     0.81600
N1642       N  0.35420468  0.49765054  0.64599990    -0.79100
C1643       C  0.36974084  0.72320063  0.67231972     0.81700
N1644       N  0.35395003  0.70344237  0.68560863    -0.80800
Zr1645     Zr  0.47607675  0.68462673  0.73636891     2.17500
O1646       O  0.46821758  0.62189782  0.74393577    -0.52400
O1647       O  0.41990227  0.69651866  0.70800468    -0.75600
O1648       O  0.46648329  0.66244778  0.78518829    -0.82400
O1649       O  0.49373383  0.67733213  0.65446297    -0.84100
O1650       O  0.49501480  0.69490611  0.83616765    -0.79700
O1651       O  0.46419403  0.65468893  0.67901008    -0.91400
O1652       O  0.41557506  0.50423525  0.68885308    -0.77300
O1653       O  0.47062575  0.73844505  0.76341175    -0.86800
O1654       O  0.47004837  0.73079382  0.69494333    -0.86500
O1655       O  0.02319119  0.69012370  0.79145771    -0.73300
O1656       O  0.02265040  0.68328800  0.72959267    -0.85400
Zr1657     Zr  0.05703061  0.54531767  0.77176360     2.26400
Zr1658     Zr  0.01817392  0.74551443  0.81843979     2.06300
Zr1659     Zr  0.01708991  0.73225274  0.68939622     2.10000
Zr1660     Zr  0.46429878  0.53457814  0.72169255     1.78800
O1661       O  0.05478805  0.70565271  0.67336856    -0.94200
O1662       O  0.44573486  0.56386322  0.76047936    -0.42000
O1663       O  0.01115370  0.53618026  0.71627109    -0.78600
O1664       O  0.01006849  0.54458253  0.77756210    -0.97300
O1665       O  0.06485955  0.74745354  0.81251108    -0.90600
O1666       O  0.06369104  0.74143122  0.74451440    -0.93500
C1667       C  0.40386992  0.72409159  0.69065668     1.00300
C1668       C  0.47373039  0.65475123  0.65491390     1.13200
C1669       C  0.47602562  0.66914291  0.81871374     1.04000
O1670       O  0.48753686  0.51621531  0.84671148    -0.95600
O1671       O  0.03785304  0.55292571  0.85167289    -0.91400
O1672       O  0.06923579  0.57526766  0.82940476    -0.84500
C1673       C  0.05822511  0.57572413  0.85220597     1.10600
O1674       O  0.10595984  0.64289382  0.80438034    -0.97600
Zr1675     Zr  0.06933608  0.69353417  0.78434988     1.88900
O1676       O  0.11327088  0.53508914  0.80036988    -0.74300
O1677       O  0.06684289  0.72533571  0.86806526    -0.53500
O1678       O  0.08044436  0.65895934  0.83790697    -0.98200
O1679       O  0.08691267  0.66124912  0.74623274    -0.55400
O1680       O  0.11728128  0.72584175  0.81610410    -0.74800
C1681       C  0.12905682  0.75668388  0.81621882     0.97600
O1682       O  0.05200893  0.61046080  0.76462584    -0.63600
O1683       O  0.47762877  0.50534342  0.63218708    -0.58400
O1684       O  0.06772131  0.56796856  0.72412756    -0.95100
O1685       O  0.03939363  0.53510455  0.67331007    -0.93500
O1686       O  0.41969231  0.57048887  0.68035952    -0.93900
O1687       O  0.46749632  0.57866352  0.68071470    -0.92600
C1688       C  0.05799798  0.56122524  0.69060433     1.16400
H1689       H  0.45236966  0.72599684  0.67201333     0.32400
H1690       H  0.00796949  0.56732741  0.78737939     0.43200
H1691       H  0.08159069  0.74325552  0.74023750     0.36700
H1692       H  0.02509875  0.66954744  0.80644455     0.33200
H1693       H  0.42677651  0.55013636  0.75621742     0.25000
H1694       H  0.07780658  0.74726837  0.88140190     0.30900
H1695       H  0.09760565  0.67246136  0.85736449     0.36900
H1696       H  0.40584252  0.57305203  0.69168688     0.31300
H1697       H  0.45956808  0.48887037  0.62428472     0.30200
H1698       H  0.04999906  0.67951154  0.67019049     0.31900
H1699       H  0.09630242  0.67988375  0.73730293     0.30800
H1700       H  0.48769818  0.59135434  0.69289148     0.34800
H1701       H  0.03610008  0.61385863  0.73943102     0.27600
H1702       H  0.44933287  0.61645107  0.72150365     0.31800
H1703       H  0.12679589  0.65385751  0.81848729     0.34700
H1704       H  0.47041436  0.52802925  0.63840599     0.27300
H1705       H  0.04134098  0.61834717  0.77860638     0.40100
H1706       H  0.46570491  0.51305155  0.82808244     0.30200
H1707       H  0.46074385  0.55792839  0.78548494     0.37800
H1708       H  0.06806953  0.65304616  0.72484606     0.29700
H1709       H  0.06084324  0.71212797  0.88426415     0.29700
H1710       H  0.48540998  0.60957948  0.74201284     0.30000
C1711       C  0.21071597  0.52359276  0.83649883     0.79200
N1712       N  0.17939196  0.52751953  0.82257807    -0.79100
C1713       C  0.16312352  0.50735734  0.83490490     0.81600
N1714       N  0.17822890  0.73250702  0.86107875    -0.79100
C1715       C  0.20944036  0.72783859  0.87571257     0.81700
N1716       N  0.22603730  0.74844980  0.86319276    -0.80800
C1717       C  0.45905778  0.58247893  0.58527580     0.79200
N1718       N  0.42778960  0.57867707  0.57207875    -0.79100
C1719       C  0.41201548  0.59877147  0.58514313     0.81600
N1720       N  0.42760361  0.62329302  0.61140226    -0.79100
C1721       C  0.45874562  0.62806924  0.62502760     0.81700
N1722       N  0.47479451  0.60758103  0.61174581    -0.80800
Zr1723     Zr  0.30568982  0.56001614  0.52126669     2.17500
O1724       O  0.31257766  0.74736658  0.51264048    -0.52400
O1725       O  0.36187138  0.57194472  0.54983101    -0.75600
O1726       O  0.31567293  0.53851419  0.97253034    -0.82400
O1727       O  0.28839916  0.55248907  0.60336987    -0.84100
O1728       O  0.28638436  0.57011680  0.92119729    -0.79700
O1729       O  0.31773473  0.52971381  0.57860031    -0.91400
O1730       O  0.36612777  0.63005638  0.56817729    -0.77300
O1731       O  0.31100165  0.61387784  0.99419762    -0.86800
O1732       O  0.31166011  0.60617200  0.56266571    -0.86500
O1733       O  0.25851319  0.56536488  0.96630883    -0.73300
O1734       O  0.25914254  0.55854946  0.52817123    -0.85400
Zr1735     Zr  0.22454970  0.67043581  0.98593091     2.26400
Zr1736     Zr  0.26339958  0.62069655  0.93918809     2.06300
Zr1737     Zr  0.26468774  0.60742710  0.56840198     2.10000
Zr1738     Zr  0.31712015  0.65999552  0.53572791     1.78800
O1739       O  0.22684860  0.58046794  0.58403984    -0.94200
O1740       O  0.33581277  0.68953733  0.99729465    -0.42000
O1741       O  0.27041808  0.66125262  0.54130505    -0.78600
O1742       O  0.27150125  0.66975868  0.98005943    -0.97300
O1743       O  0.21672290  0.62260149  0.94518491    -0.90600
O1744       O  0.21800572  0.61655601  0.51332300    -0.93500
C1745       C  0.37787947  0.59969734  0.56679709     1.00300
C1746       C  0.30827295  0.52976902  0.60278734     1.13200
C1747       C  0.30580288  0.54479313  0.93886976     1.04000
O1748       O  0.29434001  0.64126478  0.91111918    -0.95600
O1749       O  0.24395667  0.67804947  0.90593210    -0.91400
O1750       O  0.21252096  0.70017066  0.92822912    -0.84500
C1751       C  0.22353117  0.70073264  0.90543035     1.10600
O1752       O  0.17509526  0.76874352  0.95345122    -0.97600
Zr1753     Zr  0.21238310  0.56875060  0.97351191     1.88900
O1754       O  0.16826323  0.66039987  0.95722821    -0.74300
O1755       O  0.21438498  0.60087164  0.88984138    -0.53500
O1756       O  0.20131965  0.53406208  0.92002114    -0.98200
O1757       O  0.19502203  0.53582051  0.51149719    -0.55400
O1758       O  0.16434927  0.60105109  0.94225259    -0.74800
C1759       C  0.15249899  0.63192928  0.94177611     0.97600
O1760       O  0.22933515  0.73560039  0.99272877    -0.63600
O1761       O  0.30383873  0.63061751  0.62552936    -0.58400
O1762       O  0.21378576  0.69278390  0.53374698    -0.95100
O1763       O  0.24246520  0.66017683  0.58465872    -0.93500
O1764       O  0.36090869  0.69666636  0.57746489    -0.93900
O1765       O  0.31315479  0.70400995  0.57623434    -0.92600
C1766       C  0.22367370  0.68615822  0.56734154     1.16400
H1767       H  0.32940766  0.60149023  0.58557591     0.32400
H1768       H  0.27360562  0.69246537  0.97019184     0.43200
H1769       H  0.20012040  0.61830180  0.51764032     0.36700
H1770       H  0.25667149  0.54475869  0.95137746     0.33200
H1771       H  0.35497922  0.67638345  0.50177320     0.25000
H1772       H  0.20348439  0.62286375  0.87656780     0.30900
H1773       H  0.18395304  0.54733878  0.90058845     0.36900
H1774       H  0.37496340  0.69957247  0.56644830     0.31300
H1775       H  0.32191095  0.61415352  0.63350215     0.30200
H1776       H  0.23225608  0.55451764  0.58819449     0.31900
H1777       H  0.18515579  0.55406250  0.02005390     0.30800
H1778       H  0.29316153  0.71702735  0.56356349     0.34800
H1779       H  0.24522673  0.73894215  0.51831154     0.27600
H1780       H  0.33136433  0.74150419  0.53500818     0.31800
H1781       H  0.15438900  0.77999550  0.93929085     0.34700
H1782       H  0.31106416  0.65326881  0.61925487     0.27300
H1783       H  0.23998799  0.49342214  0.97863394     0.40100
H1784       H  0.31614329  0.63807675  0.92982510     0.30200
H1785       H  0.32124290  0.68284888  0.97233883     0.37800
H1786       H  0.21391520  0.52840618  0.53322896     0.29700
H1787       H  0.22010023  0.58752196  0.87347656     0.29700
H1788       H  0.29500159  0.73531388  0.01457674     0.30000
C1789       C  0.07077007  0.64807921  0.92154399     0.79200
N1790       N  0.10207875  0.65219500  0.93547000    -0.79100
C1791       C  0.11841497  0.63242528  0.92294377     0.81600
N1792       N  0.10340798  0.60776853  0.89663836    -0.79100
C1793       C  0.07221319  0.60283308  0.88199706     0.81700
N1794       N  0.05553775  0.62302586  0.89473426    -0.80800
C1795       C  0.32094873  0.52359938  0.92132606     0.79200
N1796       N  0.35227918  0.52745703  0.93525149    -0.79100
C1797       C  0.36851175  0.50731126  0.92286446     0.81600
N1798       N  0.35345251  0.73255204  0.89675902    -0.79100
C1799       C  0.32223924  0.72790067  0.88210317     0.81700
N1800       N  0.30564172  0.74847566  0.89464882    -0.80800
C1801       C  0.20895047  0.70741236  0.58535485     0.79200
N1802       N  0.22461538  0.73261891  0.61178993    -0.77900
C1803       C  0.20856003  0.50286399  0.62526919     0.81600
N1804       N  0.17747619  0.49773686  0.61185952    -0.79100
C1805       C  0.16194095  0.72316947  0.58559524     0.81700
N1806       N  0.17772790  0.70330981  0.57237191    -0.80800
Zr1807     Zr  0.05555991  0.68466144  0.52143279     2.17500
O1808       O  0.06327183  0.62192818  0.51373183    -0.52400
O1809       O  0.11176048  0.69648977  0.54993132    -0.75600
O1810       O  0.06515516  0.66256570  0.97264718    -0.82400
O1811       O  0.03800639  0.67741146  0.60343430    -0.84100
O1812       O  0.03645989  0.69482381  0.92157759    -0.79700
O1813       O  0.06743176  0.65467911  0.57878169    -0.91400
O1814       O  0.11606741  0.50440024  0.56891126    -0.77300
O1815       O  0.06098498  0.73856465  0.99438841    -0.86800
O1816       O  0.06161211  0.73082569  0.56285666    -0.86500
O1817       O  0.00844974  0.69013707  0.96644622    -0.73300
O1818       O  0.00899277  0.68337272  0.52828837    -0.85400
Zr1819     Zr  0.47459687  0.54532778  0.98603742     2.26400
Zr1820     Zr  0.01338099  0.74550905  0.93936807     2.06300
Zr1821     Zr  0.01461058  0.73234434  0.56847542     2.10000
Zr1822     Zr  0.06729559  0.53468011  0.53605664     1.78800
O1823       O  0.47706761  0.70582923  0.58472901    -0.94200
O1824       O  0.08578066  0.56417592  0.99730982    -0.42000
O1825       O  0.02051960  0.53624739  0.54150972    -0.78600
O1826       O  0.02155036  0.54457190  0.98022763    -0.97300
O1827       O  0.46669955  0.74743524  0.94532614    -0.90600
O1828       O  0.46800671  0.74154349  0.51348106    -0.93500
C1829       C  0.12779998  0.72408721  0.56722400     1.00300
C1830       C  0.05795499  0.65478044  0.60293256     1.13200
C1831       C  0.05552911  0.66913959  0.93908151     1.04000
O1832       O  0.04401793  0.51609681  0.91100177    -0.95600
O1833       O  0.49373649  0.55295885  0.90612334    -0.91400
O1834       O  0.46236532  0.57530165  0.92841257    -0.84500
C1835       C  0.47337009  0.57576374  0.90560779     1.10600
O1836       O  0.42541590  0.64314525  0.95371963    -0.97600
Zr1837     Zr  0.46230164  0.69353027  0.97354271     1.88900
O1838       O  0.41836519  0.53498589  0.95751899    -0.74300
O1839       O  0.46455128  0.72543411  0.88977470    -0.53500
O1840       O  0.45125012  0.65891232  0.92002864    -0.98200
O1841       O  0.44461114  0.66135668  0.51162932    -0.55400
O1842       O  0.41441492  0.72589997  0.94159312    -0.74800
C1843       C  0.40262014  0.75668040  0.94165975     0.97600
O1844       O  0.47953073  0.61048112  0.99314622    -0.63600
O1845       O  0.05381614  0.50539690  0.62562984    -0.58400
O1846       O  0.46400469  0.56782419  0.53385166    -0.95100
O1847       O  0.49244695  0.53508924  0.58473019    -0.93500
O1848       O  0.11169097  0.57075436  0.57755857    -0.93900
O1849       O  0.06407723  0.57870942  0.57704770    -0.92600
C1850       C  0.47377195  0.56113687  0.56739104     1.16400
H1851       H  0.07929404  0.72603805  0.58578610     0.32400
H1852       H  0.02362590  0.56731370  0.97038870     0.43200
H1853       H  0.45012875  0.74337069  0.51779979     0.36700
H1854       H  0.00657140  0.66952480  0.95151287     0.33200
H1855       H  0.10484995  0.54996607  0.50150463     0.25000
H1856       H  0.45370453  0.74738085  0.87635358     0.30900
H1857       H  0.43393880  0.67225842  0.90059656     0.36900
H1858       H  0.12564556  0.57333851  0.56637108     0.31300
H1859       H  0.07194152  0.48903002  0.63350342     0.30200
H1860       H  0.48160288  0.67961953  0.58746247     0.31900
H1861       H  0.43525164  0.67964641  0.02045422     0.30800
H1862       H  0.04389231  0.59142835  0.56482952     0.34800
H1863       H  0.49552325  0.61381535  0.51848222     0.27600
H1864       H  0.08212470  0.61642825  0.53617085     0.31800
H1865       H  0.40463735  0.65422740  0.93956101     0.34700
H1866       H  0.06094792  0.52817481  0.61946370     0.27300
H1867       H  0.49011608  0.61840871  0.97908891     0.40100
H1868       H  0.06585020  0.51303467  0.92966413     0.30200
H1869       H  0.07093097  0.55795080  0.97232108     0.37800
H1870       H  0.46343902  0.65290484  0.53289479     0.29700
H1871       H  0.47048323  0.71201720  0.87362480     0.29700
H1872       H  0.04605327  0.60978965  0.01534468     0.30000
C1873       C  0.46086943  0.89817233  0.33639718     0.79200
N1874       N  0.47609452  0.87311591  0.36320802    -0.79100
C1875       C  0.45941329  0.85292108  0.37593762     0.81600
N1876       N  0.42821599  0.85785172  0.36127951    -0.79100
C1877       C  0.41321394  0.88251201  0.33497409     0.81700
N1878       N  0.42955935  0.90229068  0.32246351    -0.80800
Zr1879     Zr  0.22591691  0.81013032  0.23653594     2.17500
O1880       O  0.21887195  0.99748805  0.24524024    -0.52400
O1881       O  0.16975053  0.82214294  0.20804226    -0.75600
O1882       O  0.21617989  0.78843005  0.28543842    -0.82400
O1883       O  0.24337708  0.80245909  0.15457442    -0.84100
O1884       O  0.24527901  0.82019352  0.33672407    -0.79700
O1885       O  0.21392416  0.77980866  0.17924235    -0.91400
O1886       O  0.16546380  0.88010569  0.18929830    -0.77300
O1887       O  0.22062544  0.86393686  0.26368115    -0.86800
O1888       O  0.21993949  0.85627032  0.19510442    -0.86500
O1889       O  0.27310568  0.81546184  0.29153470    -0.73300
O1890       O  0.27247021  0.80861243  0.22963413    -0.85400
Zr1891     Zr  0.30706350  0.92048040  0.27194830     2.26400
Zr1892     Zr  0.26822456  0.87077993  0.31869928     2.06300
Zr1893     Zr  0.26693474  0.85751388  0.18941151     2.10000
Zr1894     Zr  0.21441527  0.91009173  0.22200540     1.78800
O1895       O  0.30473447  0.83068644  0.17362397    -0.94200
O1896       O  0.19572112  0.93948137  0.26063093    -0.42000
O1897       O  0.26115494  0.91133733  0.21650293    -0.78600
O1898       O  0.26012729  0.91985419  0.27784254    -0.97300
O1899       O  0.31489348  0.87263675  0.31268240    -0.90600
O1900       O  0.31357954  0.86667840  0.24453321    -0.93500
C1901       C  0.15372606  0.84980825  0.19088814     1.00300
C1902       C  0.22344276  0.77980178  0.15510839     1.13200
C1903       C  0.22596692  0.79477240  0.31907553     1.04000
O1904       O  0.23702007  0.89137123  0.34643576    -0.95600
O1905       O  0.28768834  0.92815289  0.35193174    -0.91400
O1906       O  0.31917160  0.95021076  0.32967325    -0.84500
C1907       C  0.30814872  0.95080083  0.35245930     1.10600
O1908       O  0.35629855  0.01863079  0.30445644    -0.97600
Zr1909     Zr  0.31923716  0.81879342  0.28435046     1.88900
O1910       O  0.36335661  0.91048839  0.30072586    -0.74300
O1911       O  0.31721572  0.85109693  0.36819670    -0.53500
O1912       O  0.33025259  0.78424473  0.33790982    -0.98200
O1913       O  0.33656018  0.78602186  0.24627039    -0.55400
O1914       O  0.36728405  0.85109275  0.31555562    -0.74800
C1915       C  0.37912711  0.88199935  0.31611503     0.97600
O1916       O  0.30210431  0.98563047  0.26507868    -0.63600
O1917       O  0.22763772  0.88017113  0.13209078    -0.58400
O1918       O  0.31772648  0.94303629  0.22417514    -0.95100
O1919       O  0.28920380  0.91033462  0.17327638    -0.93500
O1920       O  0.17072243  0.94695558  0.18035822    -0.93900
O1921       O  0.21832359  0.95418971  0.18154218    -0.92600
C1922       C  0.30792783  0.93637385  0.19060294     1.16400
H1923       H  0.20221913  0.85155714  0.17218024     0.32400
H1924       H  0.25804291  0.94257700  0.28769932     0.43200
H1925       H  0.33147339  0.86846609  0.24023816     0.36700
H1926       H  0.27495097  0.79484912  0.30645737     0.33200
H1927       H  0.17650145  0.92612097  0.25598068     0.25000
H1928       H  0.32813467  0.87312889  0.38136072     0.30900
H1929       H  0.34748834  0.79766624  0.35735689     0.36900
H1930       H  0.15646360  0.94946719  0.19114761     0.31300
H1931       H  0.20978156  0.86337190  0.12409890     0.30200
H1932       H  0.29957178  0.80465427  0.16983783     0.31900
H1933       H  0.34634063  0.80445423  0.23761642     0.30800
H1934       H  0.23838201  0.96708817  0.19417573     0.34800
H1935       H  0.28627013  0.98911227  0.23987025     0.27600
H1936       H  0.19992353  0.99173263  0.22300499     0.31800
H1937       H  0.37703930  0.02982309  0.31856344     0.34700
H1938       H  0.22006167  0.90264696  0.13821900     0.27300
H1939       H  0.29111740  0.74333387  0.27890597     0.40100
H1940       H  0.21525748  0.88785954  0.32773547     0.30200
H1941       H  0.21049578  0.93317983  0.28562639     0.37800
H1942       H  0.31766555  0.77824947  0.22471792     0.29700
H1943       H  0.31150606  0.83787745  0.38463162     0.29700
H1944       H  0.23603562  0.98529681  0.24316299     0.30000
C1945       C  0.07263064  0.83268054  0.17272948     0.79200
N1946       N  0.05684758  0.85777274  0.14625021    -0.79100
C1947       C  0.07283503  0.87818015  0.13281765     0.81600
N1948       N  0.10396074  0.87335084  0.14633399    -0.79100
C1949       C  0.11959306  0.84886846  0.17261689     0.81700
N1950       N  0.10387999  0.82883823  0.18580500    -0.80800
C1951       C  0.32270475  0.95763163  0.17264154     0.79200
N1952       N  0.30706313  0.98278170  0.14613650    -0.79100
C1953       C  0.32312725  0.75289406  0.13259261     0.81600
N1954       N  0.35419829  0.74771199  0.14600217    -0.79100
C1955       C  0.36971928  0.97321081  0.17232053     0.81700
N1956       N  0.35392795  0.95348858  0.18564128    -0.80800
Zr1957     Zr  0.47607975  0.93467260  0.23638061     2.17500
O1958       O  0.46834034  0.87194116  0.24396183    -0.52400
O1959       O  0.41989304  0.94653072  0.20799160    -0.75600
O1960       O  0.46659028  0.91250480  0.28531685    -0.82400
O1961       O  0.49375584  0.92734601  0.15441813    -0.84100
O1962       O  0.49508245  0.94499630  0.33628849    -0.79700
O1963       O  0.46419207  0.90476369  0.17895528    -0.91400
O1964       O  0.41557121  0.75441165  0.18904734    -0.77300
O1965       O  0.47063823  0.98852464  0.26339357    -0.86800
O1966       O  0.47005339  0.98081171  0.19493794    -0.86500
O1967       O  0.02320022  0.94021416  0.29144235    -0.73300
O1968       O  0.02263333  0.93338595  0.22954232    -0.85400
Zr1969     Zr  0.05705408  0.79531016  0.27182061     2.26400
Zr1970     Zr  0.01825335  0.99558281  0.31851291     2.06300
Zr1971     Zr  0.01706369  0.98238996  0.18938167     2.10000
Zr1972     Zr  0.46438200  0.78465973  0.22166216     1.78800
O1973       O  0.05463805  0.95586333  0.17310639    -0.94200
O1974       O  0.44585801  0.81407124  0.26042197    -0.42000
O1975       O  0.01118620  0.78620413  0.21630679    -0.78600
O1976       O  0.01008823  0.79458588  0.27762115    -0.97300
O1977       O  0.06494036  0.99747485  0.31257722    -0.90600
O1978       O  0.06368876  0.99150778  0.24450309    -0.93500
C1979       C  0.40385619  0.97410552  0.19064433     1.00300
C1980       C  0.47372791  0.90479510  0.15485141     1.13200
C1981       C  0.47611759  0.91920743  0.31884597     1.04000
O1982       O  0.48750925  0.76595015  0.34682024    -0.95600
O1983       O  0.03776722  0.80295966  0.35165196    -0.91400
O1984       O  0.06918788  0.82528324  0.32942761    -0.84500
C1985       C  0.05814306  0.82576333  0.35219512     1.10600
O1986       O  0.10597588  0.89298245  0.30446521    -0.97600
Zr1987     Zr  0.06932881  0.94358950  0.28431156     1.88900
O1988       O  0.11330575  0.78505029  0.30038087    -0.74300
O1989       O  0.06690447  0.97543173  0.36818657    -0.53500
O1990       O  0.08042480  0.90917845  0.33796094    -0.98200
O1991       O  0.08689272  0.91118247  0.24625004    -0.55400
O1992       O  0.11731933  0.97582346  0.31588678    -0.74800
C1993       C  0.12911731  0.00667071  0.31610036     0.97600
O1994       O  0.05206626  0.86047474  0.26475613    -0.63600
O1995       O  0.47777055  0.75536118  0.13220151    -0.58400
O1996       O  0.06771244  0.81801497  0.22419129    -0.95100
O1997       O  0.03941307  0.78513364  0.17337102    -0.93500
O1998       O  0.42002265  0.82063084  0.17993014    -0.93900
O1999       O  0.46790775  0.82879163  0.18091299    -0.92600
C2000       C  0.05798168  0.81128469  0.19066487     1.16400
H2001       H  0.45237228  0.97600320  0.17201383     0.32400
H2002       H  0.00797952  0.81732980  0.28743235     0.43200
H2003       H  0.08157880  0.99331481  0.24020604     0.36700
H2004       H  0.02509112  0.91961768  0.30639888     0.33200
H2005       H  0.42659947  0.80077625  0.25573525     0.25000
H2006       H  0.07784049  0.99736840  0.38154042     0.30900
H2007       H  0.09760093  0.92269523  0.35738646     0.36900
H2008       H  0.40611694  0.82347828  0.19115144     0.31300
H2009       H  0.45968748  0.73892029  0.12427465     0.30200
H2010       H  0.05003243  0.92967292  0.17021168     0.31900
H2011       H  0.09641655  0.92976710  0.23743288     0.30800
H2012       H  0.48805607  0.84156635  0.19326841     0.34800
H2013       H  0.03617396  0.86392666  0.23956483     0.27600
H2014       H  0.44962120  0.86638206  0.22140244     0.31800
H2015       H  0.12682699  0.90399046  0.31833636     0.34700
H2016       H  0.47057606  0.77806311  0.13842119     0.27300
H2017       H  0.04139605  0.86836515  0.27873313     0.40100
H2018       H  0.46567552  0.76292304  0.32814956     0.30200
H2019       H  0.46060074  0.80763064  0.28538904     0.37800
H2020       H  0.06804053  0.90313008  0.22479277     0.29700
H2021       H  0.06088424  0.96220823  0.38435864     0.29700
H2022       H  0.48571065  0.85973838  0.24232604     0.30000
C2023       C  0.21078348  0.77358108  0.33657656     0.79200
N2024       N  0.17944850  0.77745314  0.32258566    -0.79100
C2025       C  0.16316561  0.75729670  0.33489669     0.81600
N2026       N  0.17825702  0.98249251  0.36101730    -0.79100
C2027       C  0.20947296  0.97784409  0.37571986     0.81700
N2028       N  0.22610310  0.99841497  0.36321523    -0.80800
C2029       C  0.45904160  0.83252626  0.08517778     0.79200
N2030       N  0.42777716  0.82868343  0.07201609    -0.79100
C2031       C  0.41200743  0.84875084  0.08511071     0.81600
N2032       N  0.42760323  0.87327091  0.11137334    -0.79100
C2033       C  0.45873589  0.87810146  0.12495423     0.81700
N2034       N  0.47477421  0.85765498  0.11162505    -0.80800
Zr2035     Zr  0.30566144  0.81000734  0.02125387     2.17500
O2036       O  0.31236692  0.99728153  0.01260759    -0.52400
O2037       O  0.36184251  0.82198624  0.04960143    -0.75600
O2038       O  0.31559046  0.78853122  0.47244150    -0.82400
O2039       O  0.28823668  0.80233707  0.10318446    -0.84100
O2040       O  0.28635649  0.82018847  0.42112896    -0.79700
O2041       O  0.31783253  0.77978350  0.07864888    -0.91400
O2042       O  0.36608795  0.87986652  0.06856491    -0.77300
O2043       O  0.31091967  0.86386327  0.49410423    -0.86800
O2044       O  0.31158131  0.85606499  0.06274191    -0.86500
O2045       O  0.25846663  0.81533685  0.46627119    -0.73300
O2046       O  0.25906300  0.80856487  0.02805748    -0.85400
Zr2047     Zr  0.22448090  0.92043490  0.48591075     2.26400
Zr2048     Zr  0.26329662  0.87066805  0.43912886     2.06300
Zr2049     Zr  0.26454662  0.85735765  0.06834089     2.10000
Zr2050     Zr  0.31714031  0.90992674  0.03593858     1.78800
O2051       O  0.22670621  0.83031221  0.08393154    -0.94200
O2052       O  0.33572943  0.93954044  0.49713665    -0.42000
O2053       O  0.27036449  0.91120483  0.04134370    -0.78600
O2054       O  0.27139821  0.91975221  0.47997587    -0.97300
O2055       O  0.21662489  0.87261919  0.44513135    -0.90600
O2056       O  0.21792489  0.86659510  0.01320984    -0.93500
C2057       C  0.37785612  0.84962999  0.06684057     1.00300
C2058       C  0.30825099  0.77974764  0.10273217     1.13200
C2059       C  0.30575836  0.79485092  0.43879388     1.04000
O2060       O  0.29416297  0.89132050  0.41102359    -0.95600
O2061       O  0.24387024  0.92799952  0.40589378    -0.91400
O2062       O  0.21256069  0.95029392  0.42829438    -0.84500
C2063       C  0.22352827  0.95076754  0.40545213     1.10600
O2064       O  0.17504526  0.01877814  0.45365137    -0.97600
Zr2065     Zr  0.21232828  0.81875032  0.47344670     1.88900
O2066       O  0.16819620  0.91038555  0.45722674    -0.74300
O2067       O  0.21434084  0.85078473  0.38972748    -0.53500
O2068       O  0.20141113  0.78421407  0.41991614    -0.98200
O2069       O  0.19507456  0.78575272  0.01136591    -0.55400
O2070       O  0.16427583  0.85104681  0.44219844    -0.74800
C2071       C  0.15242704  0.88192105  0.44176381     0.97600
O2072       O  0.22933344  0.98557726  0.49297102    -0.63600
O2073       O  0.30368040  0.88035869  0.12557741    -0.58400
O2074       O  0.21393128  0.94305432  0.03372427    -0.95100
O2075       O  0.24226166  0.91013074  0.08452259    -0.93500
O2076       O  0.36077942  0.94680371  0.07764462    -0.93900
O2077       O  0.31313265  0.95395580  0.07640324    -0.92600
C2078       C  0.22365966  0.93628987  0.06726721     1.16400
H2079       H  0.32929573  0.85133276  0.08566809     0.32400
H2080       H  0.27348396  0.94247319  0.47011995     0.43200
H2081       H  0.20001954  0.86835424  0.01748744     0.36700
H2082       H  0.25665925  0.79472451  0.45135926     0.33200
H2083       H  0.35518751  0.92635123  0.00225202     0.25000
H2084       H  0.20335018  0.87279579  0.37658764     0.30900
H2085       H  0.18396410  0.79740828  0.40050236     0.36900
H2086       H  0.37507227  0.94931015  0.06690167     0.31300
H2087       H  0.32171793  0.86384057  0.13354278     0.30200
H2088       H  0.23210699  0.80435540  0.08802320     0.31900
H2089       H  0.18488856  0.80428293  0.51981053     0.30800
H2090       H  0.29311384  0.96693050  0.06374968     0.34800
H2091       H  0.24529090  0.98909246  0.01788362     0.27600
H2092       H  0.33125748  0.99143823  0.03487553     0.31800
H2093       H  0.15435095  0.03006819  0.43952116     0.34700
H2094       H  0.31098197  0.90300630  0.11939380     0.27300
H2095       H  0.24002195  0.74348727  0.47915336     0.40100
H2096       H  0.31596989  0.88834372  0.42978827     0.30200
H2097       H  0.32094810  0.93326037  0.47213872     0.37800
H2098       H  0.21397779  0.77828636  0.03306160     0.29700
H2099       H  0.22008899  0.83768243  0.37326382     0.29700
H2100       H  0.29527577  0.98531531  0.51449173     0.30000
C2101       C  0.07069230  0.89814173  0.42151388     0.79200
N2102       N  0.10200830  0.90221894  0.43546820    -0.79100
C2103       C  0.11833934  0.88243396  0.42294491     0.81600
N2104       N  0.10331912  0.85780190  0.39662234    -0.79100
C2105       C  0.07212123  0.85289143  0.38196820     0.81700
N2106       N  0.05544900  0.87310143  0.39469565    -0.80800
C2107       C  0.32092109  0.77367585  0.42126125     0.79200
N2108       N  0.35224832  0.77758268  0.43516842    -0.79100
C2109       C  0.36850757  0.75738037  0.42285529     0.81600
N2110       N  0.35344336  0.98263545  0.39679961    -0.79100
C2111       C  0.32223433  0.97792088  0.38216973     0.81700
N2112       N  0.30562271  0.99849799  0.39469050    -0.80800
C2113       C  0.20892333  0.95757520  0.08525896     0.79200
N2114       N  0.22458189  0.98277006  0.11171150    -0.77900
C2115       C  0.20856437  0.75290982  0.12529017     0.81600
N2116       N  0.17748412  0.74776353  0.11186113    -0.79100
C2117       C  0.16191679  0.97330461  0.08552395     0.81700
N2118       N  0.17770022  0.95347243  0.07227294    -0.80800
Zr2119     Zr  0.05558502  0.93478164  0.02143869     2.17500
O2120       O  0.06343661  0.87209389  0.01382798    -0.52400
O2121       O  0.11176257  0.94658748  0.04998796    -0.75600
O2122       O  0.06502857  0.91251768  0.47259105    -0.82400
O2123       O  0.03781370  0.92744152  0.10333998    -0.84100
O2124       O  0.03647422  0.94496298  0.42161338    -0.79700
O2125       O  0.06736410  0.90482201  0.07880379    -0.91400
O2126       O  0.11609656  0.75452452  0.06866109    -0.77300
O2127       O  0.06098523  0.98859880  0.49445026    -0.86800
O2128       O  0.06158543  0.98097366  0.06281781    -0.86500
O2129       O  0.00840878  0.94019589  0.46644563    -0.73300
O2130       O  0.00899888  0.93342603  0.02824081    -0.85400
Zr2131     Zr  0.47461607  0.79534966  0.48616782     2.26400
Zr2132     Zr  0.01338400  0.99559406  0.43944264     2.06300
Zr2133     Zr  0.01455970  0.98242688  0.06839985     2.10000
Zr2134     Zr  0.06725553  0.78476414  0.03606905     1.78800
O2135       O  0.47682524  0.95582441  0.08454001    -0.94200
O2136       O  0.08594612  0.81397435  0.49741658    -0.42000
O2137       O  0.02048060  0.78626474  0.04152564    -0.78600
O2138       O  0.02157199  0.79456640  0.48026916    -0.97300
O2139       O  0.46672482  0.99757955  0.44540813    -0.90600
O2140       O  0.46792277  0.99146625  0.01332264    -0.93500
C2141       C  0.12778805  0.97422985  0.06717117     1.00300
C2142       C  0.05782362  0.90486283  0.10290412     1.13200
C2143       C  0.05546079  0.91919229  0.43905916     1.04000
O2144       O  0.04400186  0.76629449  0.41103619    -0.95600
O2145       O  0.49373303  0.80295443  0.40620890    -0.91400
O2146       O  0.46240924  0.82535236  0.42854396    -0.84500
C2147       C  0.47339582  0.82579061  0.40571747     1.10600
O2148       O  0.42556697  0.89315675  0.45388053    -0.97600
Zr2149     Zr  0.46229667  0.94368996  0.47362546     1.88900
O2150       O  0.41837134  0.78502977  0.45765729    -0.74300
O2151       O  0.46459866  0.97550469  0.38985537    -0.53500
O2152       O  0.45120151  0.90910269  0.42007363    -0.98200
O2153       O  0.44463239  0.91104589  0.01141852    -0.55400
O2154       O  0.41439346  0.97604426  0.44171597    -0.74800
C2155       C  0.40259744  0.00684899  0.44168912     0.97600
O2156       O  0.47961371  0.86050059  0.49325713    -0.63600
O2157       O  0.05389160  0.75559624  0.12554263    -0.58400
O2158       O  0.46401724  0.81789463  0.03377328    -0.95100
O2159       O  0.49238117  0.78507789  0.08461452    -0.93500
O2160       O  0.11156510  0.82080475  0.07780690    -0.93900
O2161       O  0.06379550  0.82886149  0.07687430    -0.92600
C2162       C  0.47375510  0.81117435  0.06729756     1.16400
H2163       H  0.07927428  0.97620200  0.08574535     0.32400
H2164       H  0.02366030  0.81731600  0.47045306     0.43200
H2165       H  0.45002572  0.99327740  0.01760652     0.36700
H2166       H  0.00650285  0.91960677  0.45147576     0.33200
H2167       H  0.10495564  0.80066170  0.00182163     0.25000
H2168       H  0.45371172  0.99743596  0.37643841     0.30900
H2169       H  0.43389415  0.92245916  0.40064711     0.36900
H2170       H  0.12554217  0.82355258  0.06666713     0.31300
H2171       H  0.07199149  0.73917916  0.13348687     0.30200
H2172       H  0.48142101  0.92963223  0.08744779     0.31900
H2173       H  0.43538105  0.92999655  0.52071435     0.30800
H2174       H  0.04364441  0.84163037  0.06452726     0.34800
H2175       H  0.49553569  0.86384313  0.01836496     0.27600
H2176       H  0.08218785  0.86659208  0.03637349     0.31800
H2177       H  0.40478195  0.90413090  0.43947586     0.34700
H2178       H  0.06105824  0.77829676  0.11928433     0.27300
H2179       H  0.49037733  0.86835909  0.47937287     0.40100
H2180       H  0.06583833  0.76327024  0.42969827     0.30200
H2181       H  0.07089524  0.80818838  0.47238632     0.37800
H2182       H  0.46347324  0.90299825  0.03289289     0.29700
H2183       H  0.47053068  0.96210999  0.37369468     0.29700
H2184       H  0.04627253  0.85969869  0.51565810     0.30000
C2185       C  0.46085605  0.89815207  0.83641344     0.79200
N2186       N  0.47609414  0.87310503  0.86322380    -0.79100
C2187       C  0.45942405  0.85291829  0.87596787     0.81600
N2188       N  0.42823311  0.85786874  0.86134904    -0.79100
C2189       C  0.41322772  0.88252943  0.83504976     0.81700
N2190       N  0.42955315  0.90227649  0.82249891    -0.80800
Zr2191     Zr  0.22598658  0.81000012  0.73658509     2.17500
O2192       O  0.21899941  0.99738067  0.74539122    -0.52400
O2193       O  0.16979756  0.82191582  0.70797708    -0.75600
O2194       O  0.21606230  0.78850229  0.78542270    -0.82400
O2195       O  0.24353263  0.80226668  0.65473476    -0.84100
O2196       O  0.24520678  0.82025472  0.83670442    -0.79700
O2197       O  0.21387334  0.77977604  0.67921415    -0.91400
O2198       O  0.16552508  0.87993820  0.68938739    -0.77300
O2199       O  0.22066994  0.86382157  0.76369668    -0.86800
O2200       O  0.22005559  0.85612888  0.69515388    -0.86500
O2201       O  0.27314696  0.81542524  0.79159290    -0.73300
O2202       O  0.27258087  0.80854153  0.72974848    -0.85400
Zr2203     Zr  0.30710913  0.92046998  0.77194582     2.26400
Zr2204     Zr  0.26825056  0.87075982  0.81870078     2.06300
Zr2205     Zr  0.26706952  0.85739887  0.68949694     2.10000
Zr2206     Zr  0.21448599  0.90994450  0.72202153     1.78800
O2207       O  0.30490302  0.83071628  0.67368594    -0.94200
O2208       O  0.19585696  0.93926080  0.76073385    -0.42000
O2209       O  0.26122566  0.91121968  0.71652114    -0.78600
O2210       O  0.26017002  0.91981970  0.77783112    -0.97300
O2211       O  0.31493825  0.87267424  0.81273045    -0.90600
O2212       O  0.31368218  0.86663083  0.74462271    -0.93500
C2213       C  0.15377816  0.84961082  0.69088012     1.00300
C2214       C  0.22347178  0.77971507  0.65514699     1.13200
C2215       C  0.22585685  0.79486188  0.81905954     1.04000
O2216       O  0.23713127  0.89126007  0.84656010    -0.95600
O2217       O  0.28768579  0.92816395  0.85185466    -0.91400
O2218       O  0.31913845  0.95029147  0.82957870    -0.84500
C2219       C  0.30811545  0.95084415  0.85236215     1.10600
O2220       O  0.35637515  0.01865228  0.80437011    -0.97600
Zr2221     Zr  0.31930699  0.81879575  0.78447798     1.88900
O2222       O  0.36339342  0.91051027  0.80081554    -0.74300
O2223       O  0.31718631  0.85098274  0.86821114    -0.53500
O2224       O  0.33025563  0.78455445  0.83817981    -0.98200
O2225       O  0.33686090  0.78605805  0.74659595    -0.55400
O2226       O  0.36732386  0.85111535  0.81565579    -0.74800
C2227       C  0.37915732  0.88202328  0.81621204     0.97600
O2228       O  0.30208785  0.98560713  0.76485645    -0.63600
O2229       O  0.22784122  0.88016892  0.63220413    -0.58400
O2230       O  0.31787241  0.94302648  0.72426868    -0.95100
O2231       O  0.28933664  0.91027874  0.67341168    -0.93500
O2232       O  0.17081564  0.94687604  0.68048555    -0.93900
O2233       O  0.21824938  0.95411737  0.68153303    -0.92600
C2234       C  0.30804217  0.93634909  0.69069869     1.16400
H2235       H  0.20233545  0.85142143  0.67222893     0.32400
H2236       H  0.25805500  0.94255630  0.78764289     0.43200
H2237       H  0.33158799  0.86840588  0.74034769     0.36700
H2238       H  0.27496457  0.79483006  0.80652646     0.33200
H2239       H  0.17657058  0.92599535  0.75598190     0.25000
H2240       H  0.32814523  0.87299936  0.88136751     0.30900
H2241       H  0.34762735  0.79788995  0.85754506     0.36900
H2242       H  0.15654626  0.94929265  0.69127021     0.31300
H2243       H  0.20990944  0.86348806  0.62424067     0.30200
H2244       H  0.29985973  0.80464705  0.67007672     0.31900
H2245       H  0.34672089  0.80449806  0.73805031     0.30800
H2246       H  0.23840815  0.96684328  0.69401317     0.34800
H2247       H  0.28627140  0.98902611  0.73962777     0.27600
H2248       H  0.19985405  0.99170082  0.72334073     0.31800
H2249       H  0.37708127  0.02982514  0.81874380     0.34700
H2250       H  0.22038749  0.90272660  0.63835061     0.27300
H2251       H  0.29132266  0.74350304  0.77870313     0.40100
H2252       H  0.21535977  0.88781744  0.82785807     0.30200
H2253       H  0.21058098  0.93280392  0.78570127     0.37800
H2254       H  0.31801133  0.77833600  0.72496563     0.29700
H2255       H  0.31143330  0.83782692  0.88464081     0.29700
H2256       H  0.23596315  0.98515474  0.74292456     0.30000
C2257       C  0.07263859  0.83250374  0.67262273     0.79200
N2258       N  0.05689263  0.85765121  0.64619432    -0.79100
C2259       C  0.07290703  0.87808014  0.63281648     0.81600
N2260       N  0.10403049  0.87321833  0.64632867    -0.79100
C2261       C  0.11963572  0.84867946  0.67256552     0.81700
N2262       N  0.10388994  0.82862757  0.68570274    -0.80800
C2263       C  0.32277323  0.95761071  0.67269459     0.79200
N2264       N  0.30712294  0.98279455  0.64622728    -0.79100
C2265       C  0.32315624  0.75291037  0.63260644     0.81600
N2266       N  0.35422678  0.74771329  0.64601213    -0.79100
C2267       C  0.36975366  0.97315941  0.67230044     0.81700
N2268       N  0.35398047  0.95343668  0.68563397    -0.80800
Zr2269     Zr  0.47607096  0.93462989  0.73643506     2.17500
O2270       O  0.46840872  0.87185970  0.74403816    -0.52400
O2271       O  0.41990003  0.94649999  0.70804785    -0.75600
O2272       O  0.46651511  0.91251451  0.78531972    -0.82400
O2273       O  0.49367510  0.92736707  0.65447120    -0.84100
O2274       O  0.49507156  0.94494530  0.83631358    -0.79700
O2275       O  0.46420187  0.90466888  0.67908155    -0.91400
O2276       O  0.41559508  0.75433648  0.68892895    -0.77300
O2277       O  0.47057042  0.98846282  0.76342694    -0.86800
O2278       O  0.47005117  0.98077497  0.69499685    -0.86500
O2279       O  0.02319215  0.94014425  0.79146546    -0.73300
O2280       O  0.02268467  0.93329250  0.72960981    -0.85400
Zr2281     Zr  0.05699620  0.79526677  0.77173417     2.26400
Zr2282     Zr  0.01816796  0.99554859  0.81841752     2.06300
Zr2283     Zr  0.01709775  0.98225396  0.68939572     2.10000
Zr2284     Zr  0.46434350  0.78461197  0.72170738     1.78800
O2285       O  0.05471236  0.95564379  0.67323825    -0.94200
O2286       O  0.44584164  0.81392232  0.76054517    -0.42000
O2287       O  0.01111875  0.78612235  0.71625043    -0.78600
O2288       O  0.01002142  0.79456817  0.77752028    -0.97300
O2289       O  0.06485874  0.99750975  0.81250711    -0.90600
O2290       O  0.06368411  0.99145129  0.74452531    -0.93500
C2291       C  0.40387531  0.97404718  0.69062925     1.00300
C2292       C  0.47370468  0.90475796  0.65495396     1.13200
C2293       C  0.47608222  0.91918522  0.81885813     1.04000
O2294       O  0.48752201  0.76618789  0.84672994    -0.95600
O2295       O  0.03779023  0.80295802  0.85162288    -0.91400
O2296       O  0.06915421  0.82528854  0.82932101    -0.84500
C2297       C  0.05815137  0.82576170  0.85212770     1.10600
O2298       O  0.10595180  0.89291095  0.80449741    -0.97600
Zr2299     Zr  0.06934440  0.94356973  0.78438754     1.88900
O2300       O  0.11324895  0.78501885  0.80042439    -0.74300
O2301       O  0.06693815  0.97549938  0.86796636    -0.53500
O2302       O  0.08041323  0.90919856  0.83804552    -0.98200
O2303       O  0.08710340  0.91132607  0.74642022    -0.55400
O2304       O  0.11726330  0.97586514  0.81616422    -0.74800
C2305       C  0.12903332  0.00668812  0.81621354     0.97600
O2306       O  0.05201127  0.86040656  0.76446606    -0.63600
O2307       O  0.47776631  0.75542766  0.63222197    -0.58400
O2308       O  0.06767883  0.81788004  0.72407571    -0.95100
O2309       O  0.03934914  0.78501301  0.67326024    -0.93500
O2310       O  0.41976076  0.82052703  0.68033724    -0.93900
O2311       O  0.46736446  0.82871865  0.68065972    -0.92600
C2312       C  0.05795279  0.81114011  0.69055090     1.16400
H2313       H  0.45239099  0.97595968  0.67205657     0.32400
H2314       H  0.00791537  0.81732183  0.78731837     0.43200
H2315       H  0.08158390  0.99327684  0.74024914     0.36700
H2316       H  0.02509424  0.91956927  0.80645057     0.33200
H2317       H  0.42678214  0.80034680  0.75615729     0.25000
H2318       H  0.07786013  0.99745075  0.88130446     0.30900
H2319       H  0.09771709  0.92260055  0.85743146     0.36900
H2320       H  0.40601676  0.82334243  0.69177385     0.31300
H2321       H  0.45967703  0.73899707  0.62429744     0.30200
H2322       H  0.05011540  0.92944946  0.67041114     0.31900
H2323       H  0.09637903  0.93000750  0.73739789     0.30800
H2324       H  0.48764592  0.84126050  0.69271257     0.34800
H2325       H  0.03603167  0.86377722  0.73929829     0.27600
H2326       H  0.44948438  0.86638930  0.72165740     0.31800
H2327       H  0.12676856  0.90384960  0.81880598     0.34700
H2328       H  0.47058808  0.77812838  0.63846206     0.27300
H2329       H  0.04144573  0.86838614  0.77853034     0.40100
H2330       H  0.46568824  0.76305631  0.82809508     0.30200
H2331       H  0.46077508  0.80781460  0.78553208     0.37800
H2332       H  0.06829825  0.90296929  0.72507444     0.29700
H2333       H  0.06101965  0.96220358  0.88418952     0.29700
H2334       H  0.48558093  0.85963262  0.74199128     0.30000
C2335       C  0.21070275  0.77366296  0.83659664     0.79200
N2336       N  0.17937265  0.77753963  0.82268054    -0.79100
C2337       C  0.16312159  0.75732339  0.83499447     0.81600
N2338       N  0.17819437  0.98249294  0.86105158    -0.79100
C2339       C  0.20940588  0.97783878  0.87569575     0.81700
N2340       N  0.22600476  0.99846573  0.86319192    -0.80800
C2341       C  0.45900632  0.83250563  0.58528437     0.79200
N2342       N  0.42773681  0.82871296  0.57209457    -0.79100
C2343       C  0.41197301  0.84880770  0.58517487     0.81600
N2344       N  0.42757213  0.87331288  0.61144538    -0.79100
C2345       C  0.45871220  0.87808334  0.62506046     0.81700
N2346       N  0.47475137  0.85759777  0.61176280    -0.80800
Zr2347     Zr  0.30566528  0.81004478  0.52126116     2.17500
O2348       O  0.31258078  0.99738200  0.51261210    -0.52400
O2349       O  0.36182906  0.82205894  0.54969758    -0.75600
O2350       O  0.31563870  0.78847054  0.97248751    -0.82400
O2351       O  0.28843594  0.80254912  0.60338954    -0.84100
O2352       O  0.28644747  0.82018554  0.92119794    -0.79700
O2353       O  0.31771323  0.77971336  0.57857065    -0.91400
O2354       O  0.36607786  0.88001388  0.56846221    -0.77300
O2355       O  0.31097744  0.86386284  0.99419448    -0.86800
O2356       O  0.31162671  0.85618179  0.56268454    -0.86500
O2357       O  0.25848753  0.81538969  0.96623095    -0.73300
O2358       O  0.25910893  0.80858530  0.52815158    -0.85400
Zr2359     Zr  0.22450118  0.92043398  0.98589215     2.26400
Zr2360     Zr  0.26340506  0.87073496  0.93916676     2.06300
Zr2361     Zr  0.26464685  0.85745426  0.56839025     2.10000
Zr2362     Zr  0.31712557  0.91001533  0.53578233     1.78800
O2363       O  0.22685555  0.83045086  0.58408412    -0.94200
O2364       O  0.33581359  0.93947487  0.99739089    -0.42000
O2365       O  0.27040769  0.91129743  0.54132679    -0.78600
O2366       O  0.27147460  0.91974393  0.98007619    -0.97300
O2367       O  0.21669920  0.87265629  0.94510018    -0.90600
O2368       O  0.21799075  0.86660429  0.51329488    -0.93500
C2369       C  0.37783632  0.84973231  0.56685967     1.00300
C2370       C  0.30828256  0.77980184  0.60278223     1.13200
C2371       C  0.30582025  0.79481091  0.93884621     1.04000
O2372       O  0.29432909  0.89151802  0.91115850    -0.95600
O2373       O  0.24394855  0.92808740  0.90593269    -0.91400
O2374       O  0.21246708  0.95015620  0.92819145    -0.84500
C2375       C  0.22349748  0.95074008  0.90541257     1.10600
O2376       O  0.17498847  0.01876346  0.95354327    -0.97600
Zr2377     Zr  0.21231539  0.81877360  0.97334427     1.88900
O2378       O  0.16821096  0.91043462  0.95713907    -0.74300
O2379       O  0.21441729  0.85088284  0.88980133    -0.53500
O2380       O  0.20127593  0.78439701  0.91968897    -0.98200
O2381       O  0.19499152  0.78593417  0.51148401    -0.55400
O2382       O  0.16427936  0.85108434  0.94215834    -0.74800
C2383       C  0.15244002  0.88197174  0.94167326     0.97600
O2384       O  0.22939843  0.98559596  0.99270261    -0.63600
O2385       O  0.30373098  0.88059130  0.62558275    -0.58400
O2386       O  0.21378249  0.94292284  0.53367326    -0.95100
O2387       O  0.24233323  0.91019597  0.58453909    -0.93500
O2388       O  0.36094142  0.94676444  0.57735035    -0.93900
O2389       O  0.31310415  0.95403973  0.57624439    -0.92600
C2390       C  0.22360948  0.93623852  0.56724384     1.16400
H2391       H  0.32934430  0.85147371  0.58561331     0.32400
H2392       H  0.27358542  0.94246236  0.97023318     0.43200
H2393       H  0.20010271  0.86836015  0.51760506     0.36700
H2394       H  0.25665328  0.79479547  0.95128801     0.33200
H2395       H  0.35495761  0.92622206  0.50174731     0.25000
H2396       H  0.20349740  0.87286138  0.87651941     0.30900
H2397       H  0.18380209  0.79762792  0.90034449     0.36900
H2398       H  0.37510825  0.94932490  0.56644325     0.31300
H2399       H  0.32182010  0.86415379  0.63355280     0.30200
H2400       H  0.23230650  0.80451322  0.58827707     0.31900
H2401       H  0.18499434  0.80404228  0.01978138     0.30800
H2402       H  0.29312990  0.96708973  0.56354131     0.34800
H2403       H  0.24520403  0.98902259  0.51817013     0.27600
H2404       H  0.33140412  0.99153464  0.53494444     0.31800
H2405       H  0.15431768  0.03000645  0.93913940     0.34700
H2406       H  0.31094752  0.90327832  0.61935823     0.27300
H2407       H  0.23994234  0.74349455  0.97868493     0.40100
H2408       H  0.31613347  0.88835869  0.92987019     0.30200
H2409       H  0.32118612  0.93293623  0.97241261     0.37800
H2410       H  0.21388200  0.77852645  0.53322167     0.29700
H2411       H  0.22014962  0.83754512  0.87344768     0.29700
H2412       H  0.29512306  0.98527745  0.01466460     0.30000
C2413       C  0.07072393  0.89818562  0.92141394     0.79200
N2414       N  0.10203055  0.90228879  0.93533358    -0.79100
C2415       C  0.11835918  0.88248832  0.92282353     0.81600
N2416       N  0.10334417  0.85781867  0.89653215    -0.79100
C2417       C  0.07214678  0.85289759  0.88189408     0.81700
N2418       N  0.05547997  0.87312105  0.89461942    -0.80800
C2419       C  0.32098091  0.77362412  0.92130981     0.79200
N2420       N  0.35231571  0.77746711  0.93526646    -0.79100
C2421       C  0.36856210  0.75730266  0.92290933     0.81600
N2422       N  0.35340732  0.98257530  0.89676315    -0.79100
C2423       C  0.32219253  0.97792521  0.88208423     0.81700
N2424       N  0.30557530  0.99851516  0.89458521    -0.80800
C2425       C  0.20889994  0.95750436  0.58525916     0.79200
N2426       N  0.22459568  0.98265871  0.61173777    -0.77900
C2427       C  0.20856036  0.75286087  0.62527918     0.81600
N2428       N  0.17747367  0.74773343  0.61184694    -0.79100
C2429       C  0.16191991  0.97326616  0.58556395     0.81700
N2430       N  0.17767585  0.95343141  0.57228223    -0.80800
Zr2431     Zr  0.05555821  0.93474247  0.52147659     2.17500
O2432       O  0.06356026  0.87205075  0.51396705    -0.52400
O2433       O  0.11173663  0.94663973  0.54986521    -0.75600
O2434       O  0.06509586  0.91262689  0.97251999    -0.82400
O2435       O  0.03791980  0.92737805  0.60342789    -0.84100
O2436       O  0.03648796  0.94497613  0.92148666    -0.79700
O2437       O  0.06741128  0.90475394  0.57882065    -0.91400
O2438       O  0.11607437  0.75437194  0.56884949    -0.77300
O2439       O  0.06100354  0.98861564  0.99437397    -0.86800
O2440       O  0.06160790  0.98087071  0.56292582    -0.86500
O2441       O  0.00847026  0.94019927  0.96638082    -0.73300
O2442       O  0.00896537  0.93338637  0.52828386    -0.85400
Zr2443     Zr  0.47463153  0.79526729  0.98610194     2.26400
Zr2444     Zr  0.01341619  0.99558484  0.93934074     2.06300
Zr2445     Zr  0.01458219  0.98233833  0.56850169     2.10000
Zr2446     Zr  0.06729118  0.78464631  0.53609826     1.78800
O2447       O  0.47698680  0.95581339  0.58459065    -0.94200
O2448       O  0.08587803  0.81421284  0.99740529    -0.42000
O2449       O  0.02053488  0.78622948  0.54158948    -0.78600
O2450       O  0.02153887  0.79462229  0.98022770    -0.97300
O2451       O  0.46669023  0.99748238  0.94530157    -0.90600
O2452       O  0.46801363  0.99159090  0.51348497    -0.93500
C2453       C  0.12778161  0.97419495  0.56724418     1.00300
C2454       C  0.05790693  0.90479547  0.60294650     1.13200
C2455       C  0.05550422  0.91924752  0.93896555     1.04000
O2456       O  0.04408324  0.76623331  0.91107283    -0.95600
O2457       O  0.49374869  0.80295106  0.90620053    -0.91400
O2458       O  0.46240786  0.82530976  0.92852401    -0.84500
C2459       C  0.47340664  0.82577492  0.90571637     1.10600
O2460       O  0.42545708  0.89310630  0.95360135    -0.97600
Zr2461     Zr  0.46225469  0.94357304  0.97347592     1.88900
O2462       O  0.41840817  0.78496991  0.95760261    -0.74300
O2463       O  0.46451206  0.97550873  0.88985478    -0.53500
O2464       O  0.45120373  0.90925936  0.91979363    -0.98200
O2465       O  0.44470986  0.91136091  0.51171016    -0.55400
O2466       O  0.41435256  0.97593115  0.94165208    -0.74800
C2467       C  0.40256379  0.00672924  0.94166129     0.97600
O2468       O  0.47956165  0.86042606  0.99320271    -0.63600
O2469       O  0.05390515  0.75528547  0.62566028    -0.58400
O2470       O  0.46391153  0.81786012  0.53382768    -0.95100
O2471       O  0.49243801  0.78516920  0.58471372    -0.93500
O2472       O  0.11173328  0.82063702  0.57764467    -0.93900
O2473       O  0.06400199  0.82868586  0.57704693    -0.92600
C2474       C  0.47371459  0.81118233  0.56737511     1.16400
H2475       H  0.07928888  0.97605337  0.58584604     0.32400
H2476       H  0.02361749  0.81737198  0.97040260     0.43200
H2477       H  0.45013354  0.99341894  0.51779943     0.36700
H2478       H  0.00659367  0.91959660  0.95143846     0.33200
H2479       H  0.10483559  0.80014546  0.50159453     0.25000
H2480       H  0.45364260  0.99747225  0.87649163     0.30900
H2481       H  0.43366212  0.92243885  0.90048275     0.36900
H2482       H  0.12570326  0.82319386  0.56647410     0.31300
H2483       H  0.07197702  0.73883050  0.63355996     0.30200
H2484       H  0.48173209  0.92965926  0.58768725     0.31900
H2485       H  0.43507127  0.92959531  0.02022527     0.30800
H2486       H  0.04387428  0.84150618  0.56473057     0.34800
H2487       H  0.49544994  0.86391162  0.51848416     0.27600
H2488       H  0.08233554  0.86659929  0.53650700     0.31800
H2489       H  0.40466976  0.90414406  0.93937156     0.34700
H2490       H  0.06112133  0.77799932  0.61948876     0.27300
H2491       H  0.49013884  0.86837283  0.97914127     0.40100
H2492       H  0.06591229  0.76318671  0.92974979     0.30200
H2493       H  0.07097759  0.80814592  0.97239224     0.37800
H2494       H  0.46355293  0.90308480  0.53305630     0.29700
H2495       H  0.47039029  0.96213711  0.87363438     0.29700
H2496       H  0.04611110  0.85980731  0.01549189     0.30000
C2497       C  0.96088307  0.14815625  0.33634552     0.79200
N2498       N  0.97611170  0.12312041  0.36317616    -0.79100
C2499       C  0.95943536  0.10297321  0.37594505     0.81600
N2500       N  0.92824466  0.10794682  0.36131722    -0.79100
C2501       C  0.91324487  0.13259932  0.33500096     0.81700
N2502       N  0.92958247  0.15231655  0.32244151    -0.80800
Zr2503     Zr  0.72595230  0.06006189  0.23649124     2.17500
O2504       O  0.71869550  0.24745536  0.24507828    -0.52400
O2505       O  0.66977425  0.07203214  0.20799526    -0.75600
O2506       O  0.71601026  0.03849728  0.28529693    -0.82400
O2507       O  0.74343414  0.05236277  0.15457227    -0.84100
O2508       O  0.74519368  0.07017215  0.33661710    -0.79700
O2509       O  0.71382988  0.02985264  0.17910645    -0.91400
O2510       O  0.66549411  0.13001223  0.18929095    -0.77300
O2511       O  0.72061223  0.11387583  0.26357736    -0.86800
O2512       O  0.72001125  0.10617204  0.19504907    -0.86500
O2513       O  0.77311646  0.06545401  0.29150708    -0.73300
O2514       O  0.77257283  0.05858182  0.22971059    -0.85400
Zr2515     Zr  0.80708378  0.17048820  0.27194056     2.26400
Zr2516     Zr  0.76816302  0.12075843  0.31862237     2.06300
Zr2517     Zr  0.76703863  0.10741393  0.18943435     2.10000
Zr2518     Zr  0.71445771  0.16000266  0.22190705     1.78800
O2519       O  0.80477239  0.08044827  0.17362033    -0.94200
O2520       O  0.69577068  0.18937911  0.26052861    -0.42000
O2521       O  0.76121985  0.16125814  0.21646124    -0.78600
O2522       O  0.76011887  0.16980875  0.27776389    -0.97300
O2523       O  0.81488377  0.12269444  0.31270877    -0.90600
O2524       O  0.81366310  0.11668118  0.24457334    -0.93500
C2525       C  0.65375052  0.09971434  0.19087283     1.00300
C2526       C  0.72340371  0.02979207  0.15501938     1.13200
C2527       C  0.72582332  0.04480808  0.31894647     1.04000
O2528       O  0.73685098  0.14140562  0.34621262    -0.95600
O2529       O  0.78763849  0.17811693  0.35185740    -0.91400
O2530       O  0.81921077  0.20012140  0.32969633    -0.84500
C2531       C  0.80814484  0.20072472  0.35243993     1.10600
O2532       O  0.85647464  0.26876948  0.30437989    -0.97600
Zr2533     Zr  0.81931089  0.06885587  0.28444226     1.88900
O2534       O  0.86338698  0.16055671  0.30066577    -0.74300
O2535       O  0.81706328  0.10093630  0.36815105    -0.53500
O2536       O  0.83025295  0.03439915  0.33802519    -0.98200
O2537       O  0.83677583  0.03608894  0.24649310    -0.55400
O2538       O  0.86731746  0.10122280  0.31569698    -0.74800
C2539       C  0.87916021  0.13210277  0.31615709     0.97600
O2540       O  0.80211300  0.23566390  0.26526252    -0.63600
O2541       O  0.72774059  0.13010544  0.13213990    -0.58400
O2542       O  0.81765782  0.19316017  0.22416268    -0.95100
O2543       O  0.78931055  0.16026708  0.17334527    -0.93500
O2544       O  0.67076633  0.19677122  0.18013779    -0.93900
O2545       O  0.71839873  0.20427908  0.18161331    -0.92600
C2546       C  0.80792704  0.18640789  0.19062312     1.16400
H2547       H  0.70228691  0.10146068  0.17212700     0.32400
H2548       H  0.75801007  0.19252897  0.28760537     0.43200
H2549       H  0.83156708  0.11847356  0.24029637     0.36700
H2550       H  0.77493817  0.04484517  0.30642613     0.33200
H2551       H  0.67644635  0.17616357  0.25570823     0.25000
H2552       H  0.82802413  0.12293592  0.38134344     0.30900
H2553       H  0.84753495  0.04778011  0.35745687     0.36900
H2554       H  0.65652536  0.19938039  0.19094062     0.31300
H2555       H  0.70989070  0.11329454  0.12412558     0.30200
H2556       H  0.79961512  0.05440872  0.16994161     0.31900
H2557       H  0.84655762  0.05452969  0.23784892     0.30800
H2558       H  0.73850515  0.21708052  0.19426653     0.34800
H2559       H  0.78638954  0.23920687  0.24001489     0.27600
H2560       H  0.69979450  0.24171888  0.22278075     0.31800
H2561       H  0.87719114  0.28005108  0.31839421     0.34700
H2562       H  0.72015496  0.15255817  0.13829621     0.27300
H2563       H  0.79135505  0.99346348  0.27895837     0.40100
H2564       H  0.71510810  0.13761803  0.32756496     0.30200
H2565       H  0.71044419  0.18287916  0.28550232     0.37800
H2566       H  0.81791014  0.02828362  0.22492549     0.29700
H2567       H  0.81128245  0.08775215  0.38454084     0.29700
H2568       H  0.73590313  0.23524047  0.24311591     0.30000
C2569       C  0.57262882  0.08259120  0.17266660     0.79200
N2570       N  0.55686088  0.10770866  0.14621699    -0.79100
C2571       C  0.57285891  0.12813863  0.13282176     0.81600
N2572       N  0.60398676  0.12330711  0.14634694    -0.79100
C2573       C  0.61961054  0.09879806  0.17260887     0.81700
N2574       N  0.60388209  0.07874469  0.18576274    -0.80800
C2575       C  0.82270757  0.20765572  0.17267435     0.79200
N2576       N  0.80707735  0.23280130  0.14616489    -0.79100
C2577       C  0.82314872  0.00295305  0.13262054     0.81600
N2578       N  0.85423363  0.99782812  0.14609324    -0.79100
C2579       C  0.86974009  0.22324589  0.17241709     0.81700
N2580       N  0.85393211  0.20351428  0.18570506    -0.80800
Zr2581     Zr  0.97608564  0.18468622  0.23633931     2.17500
O2582       O  0.96839332  0.12196041  0.24394576    -0.52400
O2583       O  0.91989970  0.19648371  0.20794783    -0.75600
O2584       O  0.96655208  0.16253642  0.28524540    -0.82400
O2585       O  0.99383619  0.17735891  0.15444596    -0.84100
O2586       O  0.99512372  0.19492102  0.33626219    -0.79700
O2587       O  0.96420221  0.15481680  0.17891224    -0.91400
O2588       O  0.91561418  0.00456083  0.18919360    -0.77300
O2589       O  0.97065493  0.23852102  0.26337291    -0.86800
O2590       O  0.97008378  0.23086079  0.19493963    -0.86500
O2591       O  0.52320142  0.19016618  0.29138580    -0.73300
O2592       O  0.52262827  0.18337100  0.22947685    -0.85400
Zr2593     Zr  0.55697250  0.04535401  0.27170478     2.26400
Zr2594     Zr  0.51822063  0.24552726  0.31842402     2.06300
Zr2595     Zr  0.51705005  0.23236101  0.18930772     2.10000
Zr2596     Zr  0.96443343  0.03478605  0.22178659     1.78800
O2597       O  0.55468904  0.20581377  0.17315419    -0.94200
O2598       O  0.94593263  0.06419511  0.26057981    -0.42000
O2599       O  0.51111092  0.03620708  0.21618759    -0.78600
O2600       O  0.51001768  0.04463466  0.27750706    -0.97300
O2601       O  0.56488610  0.24749901  0.31245784    -0.90600
O2602       O  0.56365400  0.24154116  0.24442182    -0.93500
C2603       C  0.90387167  0.22412386  0.19075484     1.00300
C2604       C  0.97376966  0.15483828  0.15483789     1.13200
C2605       C  0.97612241  0.16918067  0.31879223     1.04000
O2606       O  0.98752188  0.01614288  0.34684654    -0.95600
O2607       O  0.53770903  0.05306658  0.35154276    -0.91400
O2608       O  0.56912278  0.07535673  0.32929376    -0.84500
C2609       C  0.55809639  0.07584478  0.35207691     1.10600
O2610       O  0.60616598  0.14320336  0.30433031    -0.97600
Zr2611     Zr  0.56931477  0.19361337  0.28422567     1.88900
O2612       O  0.61321230  0.03509004  0.30031823    -0.74300
O2613       O  0.56692565  0.22542176  0.36805703    -0.53500
O2614       O  0.58035464  0.15886078  0.33765480    -0.98200
O2615       O  0.58690865  0.16136486  0.24610712    -0.55400
O2616       O  0.61720179  0.22595294  0.31609630    -0.74800
C2617       C  0.62899574  0.25675523  0.31613209     0.97600
O2618       O  0.55212381  0.11052457  0.26458398    -0.63600
O2619       O  0.97780764  0.00551449  0.13225388    -0.58400
O2620       O  0.56763779  0.06801993  0.22408402    -0.95100
O2621       O  0.53942513  0.03503765  0.17331186    -0.93500
O2622       O  0.92000669  0.07079514  0.18023395    -0.93900
O2623       O  0.96790839  0.07865722  0.18079750    -0.92600
C2624       C  0.55795948  0.06122212  0.19058379     1.16400
H2625       H  0.95238424  0.22609219  0.17201854     0.32400
H2626       H  0.50793082  0.06739480  0.28730491     0.43200
H2627       H  0.58154795  0.24337845  0.24013489     0.36700
H2628       H  0.52509617  0.16957971  0.30635573     0.33200
H2629       H  0.92680874  0.05071603  0.25610909     0.25000
H2630       H  0.57784457  0.24736765  0.38141040     0.30900
H2631       H  0.59737057  0.17244844  0.35719599     0.36900
H2632       H  0.90614060  0.07357152  0.19151631     0.31300
H2633       H  0.95964413  0.98920718  0.12438043     0.30200
H2634       H  0.55000494  0.17964428  0.17014132     0.31900
H2635       H  0.59627622  0.18001739  0.23716767     0.30800
H2636       H  0.98798296  0.09157960  0.19315737     0.34800
H2637       H  0.53615929  0.11396636  0.23942299     0.27600
H2638       H  0.94967544  0.11644372  0.22138005     0.31800
H2639       H  0.62695862  0.15429709  0.31836451     0.34700
H2640       H  0.97074415  0.02832468  0.13844622     0.27300
H2641       H  0.54155365  0.11850337  0.27864215     0.40100
H2642       H  0.96569070  0.01312785  0.32816465     0.30200
H2643       H  0.96080493  0.05799415  0.28556637     0.37800
H2644       H  0.56806889  0.15314330  0.22472812     0.29700
H2645       H  0.56094167  0.21216216  0.38424420     0.29700
H2646       H  0.98575215  0.10976218  0.24228199     0.30000
C2647       C  0.71065038  0.02362434  0.33647169     0.79200
N2648       N  0.67932061  0.02750528  0.32252923    -0.79100
C2649       C  0.66307040  0.00739456  0.33491961     0.81600
N2650       N  0.67812874  0.23259349  0.36106784    -0.79100
C2651       C  0.70933579  0.22788112  0.37571701     0.81700
N2652       N  0.72595337  0.24839087  0.36314839    -0.80800
C2653       C  0.95899056  0.08265434  0.08506326     0.79200
N2654       N  0.92773920  0.07878263  0.07198482    -0.79100
C2655       C  0.91200976  0.09881745  0.08515464     0.81600
N2656       N  0.92763320  0.12331677  0.11142309    -0.79100
C2657       C  0.95875477  0.12817312  0.12492607     0.81700
N2658       N  0.97475320  0.10777115  0.11151319    -0.80800
Zr2659     Zr  0.80569888  0.06005162  0.02126258     2.17500
O2660       O  0.81236536  0.24731214  0.01251751    -0.52400
O2661       O  0.86185593  0.07211557  0.04956651    -0.75600
O2662       O  0.81561476  0.03855395  0.47245573    -0.82400
O2663       O  0.78828133  0.05241965  0.10322743    -0.84100
O2664       O  0.78633680  0.07018549  0.42114008    -0.79700
O2665       O  0.81781701  0.02980278  0.07864063    -0.91400
O2666       O  0.86609150  0.12989846  0.06877785    -0.77300
O2667       O  0.81093668  0.11383127  0.49410995    -0.86800
O2668       O  0.81159287  0.10612066  0.06273198    -0.86500
O2669       O  0.75846234  0.06535490  0.46629393    -0.73300
O2670       O  0.75908180  0.05857877  0.02802794    -0.85400
Zr2671     Zr  0.72448496  0.17044144  0.48593710     2.26400
Zr2672     Zr  0.76329725  0.12069402  0.43914382     2.06300
Zr2673     Zr  0.76454580  0.10737931  0.06829708     2.10000
Zr2674     Zr  0.81717456  0.15998369  0.03592914     1.78800
O2675       O  0.72661075  0.08037327  0.08375902    -0.94200
O2676       O  0.83571900  0.18946525  0.49708986    -0.42000
O2677       O  0.77038808  0.16125430  0.04133387    -0.78600
O2678       O  0.77140777  0.16977043  0.48000263    -0.97300
O2679       O  0.71662925  0.12264683  0.44515229    -0.90600
O2680       O  0.71793276  0.11660897  0.01316563    -0.93500
C2681       C  0.87786432  0.09970731  0.06692753     1.00300
C2682       C  0.80826759  0.02979989  0.10275259     1.13200
C2683       C  0.80575852  0.04486155  0.43880302     1.04000
O2684       O  0.79415545  0.14135268  0.41102473    -0.95600
O2685       O  0.74376787  0.17803924  0.40590174    -0.91400
O2686       O  0.71244107  0.20030063  0.42829664    -0.84500
C2687       C  0.72340346  0.20078930  0.40545062     1.10600
O2688       O  0.67511159  0.26871956  0.45392072    -0.97600
Zr2689     Zr  0.71231283  0.06878297  0.47345145     1.88900
O2690       O  0.66818848  0.16041563  0.45712896    -0.74300
O2691       O  0.71437293  0.10076501  0.38973518    -0.53500
O2692       O  0.70134887  0.03454702  0.41973969    -0.98200
O2693       O  0.69504729  0.03583186  0.01129365    -0.55400
O2694       O  0.66425428  0.10105281  0.44218534    -0.74800
C2695       C  0.65241394  0.13194583  0.44168534     0.97600
O2696       O  0.72945975  0.23556979  0.49303916    -0.63600
O2697       O  0.80360484  0.13044574  0.12553538    -0.58400
O2698       O  0.71389030  0.19298035  0.03370644    -0.95100
O2699       O  0.74223817  0.16007692  0.08450831    -0.93500
O2700       O  0.86093353  0.19685133  0.07743269    -0.93900
O2701       O  0.81308631  0.20405315  0.07631317    -0.92600
C2702       C  0.72361299  0.18620871  0.06724737     1.16400
H2703       H  0.82927735  0.10138627  0.08568178     0.32400
H2704       H  0.77348936  0.19249678  0.47014968     0.43200
H2705       H  0.70002135  0.11836067  0.01743226     0.36700
H2706       H  0.75664869  0.04474457  0.45137668     0.33200
H2707       H  0.85515991  0.17630789  0.00211835     0.25000
H2708       H  0.70340377  0.12275461  0.37652645     0.30900
H2709       H  0.68369208  0.04760588  0.40045934     0.36900
H2710       H  0.87524891  0.19911366  0.06669504     0.31300
H2711       H  0.82161757  0.11388126  0.13358184     0.30200
H2712       H  0.73207911  0.05444327  0.08800461     0.31900
H2713       H  0.68499032  0.05437149  0.51994358     0.30800
H2714       H  0.79309173  0.21706188  0.06358222     0.34800
H2715       H  0.74501138  0.23919059  0.01780180     0.27600
H2716       H  0.83121471  0.24139949  0.03479906     0.31800
H2717       H  0.65440250  0.27999684  0.43984931     0.34700
H2718       H  0.81097085  0.15303547  0.11933203     0.27300
H2719       H  0.74018204  0.99349421  0.47915001     0.40100
H2720       H  0.81596464  0.13827216  0.42975165     0.30200
H2721       H  0.82092766  0.18316660  0.47210106     0.37800
H2722       H  0.71394060  0.02835479  0.03299597     0.29700
H2723       H  0.72015805  0.08758730  0.37334199     0.29700
H2724       H  0.79541128  0.23520838  0.51480394     0.30000
C2725       C  0.57069350  0.14814526  0.42146044     0.79200
N2726       N  0.60200532  0.15222911  0.43539575    -0.79100
C2727       C  0.61832783  0.13247302  0.42284206     0.81600
N2728       N  0.60330137  0.10785337  0.39650501    -0.79100
C2729       C  0.57210075  0.10294924  0.38186024     0.81700
N2730       N  0.55544056  0.12313575  0.39461755    -0.80800
C2731       C  0.82091548  0.02368318  0.42126345     0.79200
N2732       N  0.85224674  0.02755505  0.43519075    -0.79100
C2733       C  0.86849910  0.00735570  0.42286759     0.81600
N2734       N  0.85342662  0.23257674  0.39675839    -0.79100
C2735       C  0.82222487  0.22782391  0.38216083     0.81700
N2736       N  0.80561273  0.24836492  0.39470725    -0.80800
C2737       C  0.70887655  0.20747273  0.08524744     0.79200
N2738       N  0.72453701  0.23268721  0.11167820    -0.77900
C2739       C  0.70850132  0.00291068  0.12518033     0.81600
N2740       N  0.67742647  0.99774250  0.11179258    -0.79100
C2741       C  0.66187708  0.22319139  0.08553643     0.81700
N2742       N  0.67765590  0.20335137  0.07228317    -0.80800
Zr2743     Zr  0.55551970  0.18471467  0.02142125     2.17500
O2744       O  0.56338972  0.12199338  0.01396240    -0.52400
O2745       O  0.61170077  0.19654143  0.04988823    -0.75600
O2746       O  0.56510986  0.16258347  0.47258896    -0.82400
O2747       O  0.53784129  0.17740920  0.10338026    -0.84100
O2748       O  0.53640276  0.19486950  0.42154101    -0.79700
O2749       O  0.56735471  0.15477742  0.07880206    -0.91400
O2750       O  0.61603239  0.00438426  0.06882038    -0.77300
O2751       O  0.56103408  0.23849457  0.49444983    -0.86800
O2752       O  0.56154913  0.23087934  0.06282432    -0.86500
O2753       O  0.50843651  0.19014591  0.46649317    -0.73300
O2754       O  0.50894855  0.18342756  0.02826066    -0.85400
Zr2755     Zr  0.97461028  0.04536021  0.48614609     2.26400
Zr2756     Zr  0.51341129  0.24552412  0.43945194     2.06300
Zr2757     Zr  0.51454944  0.23239681  0.06845473     2.10000
Zr2758     Zr  0.56723093  0.03466014  0.03612803     1.78800
O2759       O  0.97673836  0.20595372  0.08437244    -0.94200
O2760       O  0.58601858  0.06409867  0.49749731    -0.42000
O2761       O  0.52046547  0.03619908  0.04159014    -0.78600
O2762       O  0.52157654  0.04467091  0.48032417    -0.97300
O2763       O  0.96672527  0.24758713  0.44536091    -0.90600
O2764       O  0.96792537  0.24154661  0.01332408    -0.93500
C2765       C  0.62774229  0.22412484  0.06719526     1.00300
C2766       C  0.55784119  0.15482777  0.10292230     1.13200
C2767       C  0.55546981  0.16918135  0.43902372     1.04000
O2768       O  0.54406338  0.01653492  0.41115560    -0.95600
O2769       O  0.99377669  0.05303228  0.40624616    -0.91400
O2770       O  0.96240151  0.07537524  0.42852772    -0.84500
C2771       C  0.97341325  0.07584176  0.40572602     1.10600
O2772       O  0.92550684  0.14317164  0.45369509    -0.97600
Zr2773     Zr  0.96226653  0.19367828  0.47353679     1.88900
O2774       O  0.91836455  0.03501226  0.45761476    -0.74300
O2775       O  0.96466611  0.22532149  0.38998264    -0.53500
O2776       O  0.95119598  0.15913743  0.41997193    -0.98200
O2777       O  0.94466288  0.16120381  0.01156797    -0.55400
O2778       O  0.91436109  0.22600209  0.44165201    -0.74800
C2779       C  0.90257084  0.25680419  0.44163418     0.97600
O2780       O  0.97963524  0.11051480  0.49325972    -0.63600
O2781       O  0.55391777  0.00535355  0.12555172    -0.58400
O2782       O  0.96393424  0.06800573  0.03362747    -0.95100
O2783       O  0.99228027  0.03517966  0.08446854    -0.93500
O2784       O  0.61163856  0.07058820  0.07783235    -0.93900
O2785       O  0.56371671  0.07871645  0.07694323    -0.92600
C2786       C  0.97367009  0.06128755  0.06715356     1.16400
H2787       H  0.57923018  0.22608192  0.08575008     0.32400
H2788       H  0.52364549  0.06743069  0.47050942     0.43200
H2789       H  0.95003306  0.24337767  0.01761414     0.36700
H2790       H  0.50652612  0.16954812  0.45153008     0.33200
H2791       H  0.60497663  0.05088826  0.00201990     0.25000
H2792       H  0.95373718  0.24721108  0.37651387     0.30900
H2793       H  0.93379520  0.17240985  0.40057604     0.36900
H2794       H  0.62567434  0.07313506  0.06674833     0.31300
H2795       H  0.57197189  0.98886660  0.13347970     0.30200
H2796       H  0.98150216  0.17980983  0.08760240     0.31900
H2797       H  0.93531897  0.17997638  0.52058562     0.30800
H2798       H  0.54360624  0.09156508  0.06457030     0.34800
H2799       H  0.99536698  0.11396806  0.01818670     0.27600
H2800       H  0.58209376  0.11647782  0.03655500     0.31800
H2801       H  0.90470338  0.15419031  0.43951734     0.34700
H2802       H  0.56115342  0.02802115  0.11932551     0.27300
H2803       H  0.99027604  0.11840246  0.47924936     0.40100
H2804       H  0.56589587  0.01360489  0.42986124     0.30200
H2805       H  0.57084837  0.05860716  0.47243994     0.37800
H2806       H  0.96350851  0.15315326  0.03303554     0.29700
H2807       H  0.97062441  0.21190969  0.37385212     0.29700
H2808       H  0.54610307  0.10966246  0.51605923     0.30000
C2809       C  0.96084848  0.14815143  0.83627686     0.79200
N2810       N  0.97610066  0.12309965  0.86307600    -0.79100
C2811       C  0.95945009  0.10292867  0.87585543     0.81600
N2812       N  0.92826496  0.10788984  0.86127319    -0.79100
C2813       C  0.91324420  0.13254866  0.83498198     0.81700
N2814       N  0.92954987  0.15229416  0.82240210    -0.80800
Zr2815     Zr  0.72597640  0.06000618  0.73656859     2.17500
O2816       O  0.71903407  0.24736938  0.74531630    -0.52400
O2817       O  0.66980470  0.07196402  0.70805852    -0.75600
O2818       O  0.71600946  0.03849529  0.78536237    -0.82400
O2819       O  0.74341502  0.05237650  0.65461892    -0.84100
O2820       O  0.74524031  0.07014702  0.83668284    -0.79700
O2821       O  0.71388297  0.02976509  0.67920494    -0.91400
O2822       O  0.66554074  0.13003070  0.68959705    -0.77300
O2823       O  0.72070174  0.11382139  0.76371400    -0.86800
O2824       O  0.72004266  0.10615547  0.69515937    -0.86500
O2825       O  0.77314586  0.06536073  0.79158057    -0.73300
O2826       O  0.77258639  0.05852184  0.72977001    -0.85400
Zr2827     Zr  0.80713042  0.17045053  0.77195935     2.26400
Zr2828     Zr  0.76828567  0.12068314  0.81872113     2.06300
Zr2829     Zr  0.76706317  0.10737785  0.68951526     2.10000
Zr2830     Zr  0.71453067  0.15997672  0.72206860     1.78800
O2831       O  0.80478670  0.08052538  0.67362564    -0.94200
O2832       O  0.69599332  0.18940457  0.76081318    -0.42000
O2833       O  0.76124779  0.16122877  0.71652515    -0.78600
O2834       O  0.76021227  0.16977150  0.77788258    -0.97300
O2835       O  0.81497372  0.12265245  0.81275610    -0.90600
O2836       O  0.81368530  0.11659906  0.74463995    -0.93500
C2837       C  0.65379372  0.09969327  0.69104570     1.00300
C2838       C  0.72342547  0.02976211  0.65508981     1.13200
C2839       C  0.72583542  0.04481223  0.81901001     1.04000
O2840       O  0.73725439  0.14112636  0.84670254    -0.95600
O2841       O  0.78770304  0.17806820  0.85191403    -0.91400
O2842       O  0.81910992  0.20025014  0.82959802    -0.84500
C2843       C  0.80810452  0.20077890  0.85239935     1.10600
O2844       O  0.85643577  0.26865541  0.80469627    -0.97600
Zr2845     Zr  0.81932404  0.06877211  0.78450540     1.88900
O2846       O  0.86340737  0.16050881  0.80076393    -0.74300
O2847       O  0.81722101  0.10081797  0.86816121    -0.53500
O2848       O  0.83021466  0.03450754  0.83817891    -0.98200
O2849       O  0.83681472  0.03596675  0.74660782    -0.55400
O2850       O  0.86734149  0.10113244  0.81567160    -0.74800
C2851       C  0.87917411  0.13203372  0.81618123     0.97600
O2852       O  0.80221475  0.23560692  0.76500772    -0.63600
O2853       O  0.72788017  0.13030016  0.63227728    -0.58400
O2854       O  0.81783063  0.19298303  0.72420622    -0.95100
O2855       O  0.78943065  0.16010912  0.67339762    -0.93500
O2856       O  0.67079367  0.19670679  0.68033646    -0.93900
O2857       O  0.71838686  0.20421786  0.68168855    -0.92600
C2858       C  0.80807773  0.18622892  0.69065999     1.16400
H2859       H  0.70230556  0.10147549  0.67223890     0.32400
H2860       H  0.75810695  0.19249447  0.78771996     0.43200
H2861       H  0.83158798  0.11836285  0.74035808     0.36700
H2862       H  0.77494754  0.04474729  0.80648666     0.33200
H2863       H  0.67659762  0.17632068  0.75593548     0.25000
H2864       H  0.82822841  0.12282572  0.88128722     0.30900
H2865       H  0.84765867  0.04775550  0.85754215     0.36900
H2866       H  0.65658483  0.19932633  0.69118104     0.31300
H2867       H  0.70991335  0.11366900  0.62428171     0.30200
H2868       H  0.79966748  0.05447576  0.66997602     0.31900
H2869       H  0.84673203  0.05437569  0.73810331     0.30800
H2870       H  0.73851946  0.21698282  0.69424881     0.34800
H2871       H  0.78642089  0.23908379  0.73977926     0.27600
H2872       H  0.70009011  0.24156357  0.72308770     0.31800
H2873       H  0.87717569  0.27987913  0.81872281     0.34700
H2874       H  0.72047768  0.15286505  0.63847649     0.27300
H2875       H  0.79135807  0.99339549  0.77884161     0.40100
H2876       H  0.71547067  0.13779305  0.82799418     0.30200
H2877       H  0.71062586  0.18276512  0.78576056     0.37800
H2878       H  0.81795024  0.02832274  0.72495597     0.29700
H2879       H  0.81146762  0.08773724  0.88462863     0.29700
H2880       H  0.73621783  0.23522544  0.74324432     0.30000
C2881       C  0.57264029  0.08253762  0.67267583     0.79200
N2882       N  0.55690533  0.10767652  0.64623722    -0.79100
C2883       C  0.57294389  0.12813702  0.63291571     0.81600
N2884       N  0.60407375  0.12331417  0.64649156    -0.79100
C2885       C  0.61966149  0.09877483  0.67272998     0.81700
N2886       N  0.60389814  0.07868986  0.68581572    -0.80800
C2887       C  0.82280589  0.20749385  0.67265082     0.79200
N2888       N  0.80713955  0.23268844  0.64619815    -0.79100
C2889       C  0.82314318  0.00284377  0.63263210     0.81600
N2890       N  0.85421806  0.99766570  0.64604477    -0.79100
C2891       C  0.86978443  0.22315159  0.67229271     0.81700
N2892       N  0.85402142  0.20335898  0.68559751    -0.80800
Zr2893     Zr  0.97611336  0.18465397  0.73637616     2.17500
O2894       O  0.96822034  0.12194454  0.74391281    -0.52400
O2895       O  0.91994950  0.19653957  0.70803679    -0.75600
O2896       O  0.96651423  0.16248389  0.78518826    -0.82400
O2897       O  0.99371401  0.17740491  0.65438297    -0.84100
O2898       O  0.99504287  0.19494796  0.83616500    -0.79700
O2899       O  0.96432541  0.15465492  0.67907609    -0.91400
O2900       O  0.91559926  0.00426304  0.68887029    -0.77300
O2901       O  0.97063741  0.23848271  0.76338424    -0.86800
O2902       O  0.97007360  0.23077864  0.69492839    -0.86500
O2903       O  0.52322236  0.19011619  0.79145640    -0.73300
O2904       O  0.52265568  0.18336520  0.72957661    -0.85400
Zr2905     Zr  0.55695704  0.04532806  0.77172943     2.26400
Zr2906     Zr  0.51817756  0.24549842  0.81843387     2.06300
Zr2907     Zr  0.51708659  0.23233381  0.68939512     2.10000
Zr2908     Zr  0.96433364  0.03458242  0.72166425     1.78800
O2909       O  0.55484030  0.20572349  0.67346155    -0.94200
O2910       O  0.94581514  0.06394514  0.76046331    -0.42000
O2911       O  0.51107590  0.03620579  0.71624044    -0.78600
O2912       O  0.50999625  0.04462219  0.77753310    -0.97300
O2913       O  0.56485320  0.24748343  0.81249257    -0.90600
O2914       O  0.56369101  0.24151940  0.74449775    -0.93500
C2915       C  0.90391075  0.22406092  0.69058207     1.00300
C2916       C  0.97378284  0.15476689  0.65491321     1.13200
C2917       C  0.97606332  0.16917943  0.81871421     1.04000
O2918       O  0.98757702  0.01641584  0.84680714    -0.95600
O2919       O  0.53774950  0.05300065  0.85160110    -0.91400
O2920       O  0.56915699  0.07528686  0.82933860    -0.84500
C2921       C  0.55813852  0.07577292  0.85212723     1.10600
O2922       O  0.60602659  0.14301104  0.80412998    -0.97600
Zr2923     Zr  0.56934605  0.19359606  0.78430726     1.88900
O2924       O  0.61320736  0.03513482  0.80038850    -0.74300
O2925       O  0.56688028  0.22534295  0.86802196    -0.53500
O2926       O  0.58055419  0.15906732  0.83790925    -0.98200
O2927       O  0.58689584  0.16130237  0.74617053    -0.55400
O2928       O  0.61725634  0.22593306  0.81609662    -0.74800
C2929       C  0.62902125  0.25678855  0.81624795     0.97600
O2930       O  0.55204721  0.11047360  0.76455998    -0.63600
O2931       O  0.97778545  0.00528766  0.63226669    -0.58400
O2932       O  0.56765211  0.06792582  0.72409275    -0.95100
O2933       O  0.53933736  0.03505999  0.67327188    -0.93500
O2934       O  0.91978427  0.07055607  0.68030982    -0.93900
O2935       O  0.96766650  0.07852995  0.68067518    -0.92600
C2936       C  0.55793917  0.06118067  0.69057436     1.16400
H2937       H  0.95241242  0.22594290  0.67199588     0.32400
H2938       H  0.50790118  0.06738680  0.78732368     0.43200
H2939       H  0.58159090  0.24336994  0.74022346     0.36700
H2940       H  0.52515137  0.16953793  0.80645141     0.33200
H2941       H  0.92671940  0.05042245  0.75602760     0.25000
H2942       H  0.57781053  0.24727070  0.88140330     0.30900
H2943       H  0.59777946  0.17254688  0.85731211     0.36900
H2944       H  0.90595447  0.07321080  0.69165303     0.31300
H2945       H  0.95965517  0.98892782  0.62439334     0.30200
H2946       H  0.55002593  0.17959051  0.67022352     0.31900
H2947       H  0.59624414  0.17994196  0.73719467     0.30800
H2948       H  0.98776140  0.09140970  0.69302825     0.34800
H2949       H  0.53604954  0.11386485  0.73940281     0.27600
H2950       H  0.94943010  0.11647633  0.72139370     0.31800
H2951       H  0.62684716  0.15398614  0.81830986     0.34700
H2952       H  0.97067466  0.02806388  0.63845818     0.27300
H2953       H  0.54150873  0.11844863  0.77865441     0.40100
H2954       H  0.96572891  0.01321525  0.82823875     0.30200
H2955       H  0.96071014  0.05778940  0.78545175     0.37800
H2956       H  0.56804871  0.15305258  0.72481475     0.29700
H2957       H  0.56090087  0.21204654  0.88419180     0.29700
H2958       H  0.98549751  0.10965510  0.74214787     0.30000
C2959       C  0.71065797  0.02364859  0.83653641     0.79200
N2960       N  0.67933516  0.02758937  0.82264139    -0.79100
C2961       C  0.66307197  0.00742530  0.83497749     0.81600
N2962       N  0.67818345  0.23260624  0.86110060    -0.79100
C2963       C  0.70938724  0.22789138  0.87569370     0.81700
N2964       N  0.72598106  0.24846195  0.86314475    -0.80800
C2965       C  0.95901277  0.08251141  0.58524906     0.79200
N2966       N  0.92775336  0.07868274  0.57212841    -0.79100
C2967       C  0.91201352  0.09876207  0.58525147     0.81600
N2968       N  0.92763462  0.12327821  0.61150411    -0.79100
C2969       C  0.95876577  0.12808742  0.62503975     0.81700
N2970       N  0.97477398  0.10763036  0.61168701    -0.80800
Zr2971     Zr  0.80567382  0.06001359  0.52127809     2.17500
O2972       O  0.81256521  0.24730876  0.51263024    -0.52400
O2973       O  0.86185096  0.07202641  0.54979204    -0.75600
O2974       O  0.81559837  0.03843129  0.97245676    -0.82400
O2975       O  0.78831670  0.05239024  0.60329913    -0.84100
O2976       O  0.78647987  0.07021700  0.92119344    -0.79700
O2977       O  0.81775711  0.02970183  0.57862316    -0.91400
O2978       O  0.86611715  0.12999041  0.56853305    -0.77300
O2979       O  0.81102487  0.11390407  0.99420481    -0.86800
O2980       O  0.81163988  0.10614794  0.56269541    -0.86500
O2981       O  0.75853597  0.06542678  0.96623788    -0.73300
O2982       O  0.75910142  0.05857022  0.52814437    -0.85400
Zr2983     Zr  0.72451296  0.17045245  0.98587484     2.26400
Zr2984     Zr  0.76345520  0.12076831  0.93917138     2.06300
Zr2985     Zr  0.76466424  0.10741763  0.56841201     2.10000
Zr2986     Zr  0.81715425  0.15997792  0.53579527     1.78800
O2987       O  0.72681461  0.08057514  0.58410274    -0.94200
O2988       O  0.83580773  0.18946022  0.99729643    -0.42000
O2989       O  0.77042407  0.16123214  0.54131689    -0.78600
O2990       O  0.77149562  0.16977821  0.98006462    -0.97300
O2991       O  0.71673167  0.12269371  0.94507126    -0.90600
O2992       O  0.71799914  0.11661793  0.51332375    -0.93500
C2993       C  0.87786989  0.09969687  0.56695212     1.00300
C2994       C  0.80825344  0.02972115  0.60277625     1.13200
C2995       C  0.80580454  0.04479744  0.93882309     1.04000
O2996       O  0.79448332  0.14146975  0.91125546    -0.95600
O2997       O  0.74388541  0.17807785  0.90586560    -0.91400
O2998       O  0.71249610  0.20023363  0.92821560    -0.84500
C2999       C  0.72347996  0.20077620  0.90539492     1.10600
O3000       O  0.67507363  0.26880253  0.95372667    -0.97600
Zr3001     Zr  0.71233978  0.06880681  0.97329913     1.88900
O3002       O  0.66822404  0.16040661  0.95714454    -0.74300
O3003       O  0.71452086  0.10072787  0.88986411    -0.53500
O3004       O  0.70140159  0.03431703  0.91974466    -0.98200
O3005       O  0.69493057  0.03597724  0.51145286    -0.55400
O3006       O  0.66430484  0.10112162  0.94193801    -0.74800
C3007       C  0.65245392  0.13197475  0.94158363     0.97600
O3008       O  0.72928462  0.23562693  0.99255884    -0.63600
O3009       O  0.80390543  0.13048900  0.62556248    -0.58400
O3010       O  0.71380692  0.19288856  0.53373220    -0.95100
O3011       O  0.74242582  0.16020224  0.58461139    -0.93500
O3012       O  0.86099323  0.19671161  0.57733827    -0.93900
O3013       O  0.81327233  0.20401872  0.57633486    -0.92600
C3014       C  0.72367307  0.18622458  0.56731462     1.16400
H3015       H  0.82935827  0.10143282  0.58562018     0.32400
H3016       H  0.77359056  0.19248788  0.97019683     0.43200
H3017       H  0.70011178  0.11838209  0.51763430     0.36700
H3018       H  0.75671065  0.04482893  0.95130567     0.33200
H3019       H  0.85494887  0.17615404  0.50169410     0.25000
H3020       H  0.70354712  0.12266285  0.87653807     0.30900
H3021       H  0.68385974  0.04744188  0.90038118     0.36900
H3022       H  0.87516631  0.19922764  0.56643455     0.31300
H3023       H  0.82183293  0.11379041  0.63363539     0.30200
H3024       H  0.73208736  0.05457929  0.58805689     0.31900
H3025       H  0.68497261  0.05413924  0.01969814     0.30800
H3026       H  0.79318486  0.21688075  0.56381084     0.34800
H3027       H  0.74528048  0.23898846  0.51826578     0.27600
H3028       H  0.83153951  0.24152731  0.53482900     0.31800
H3029       H  0.65437879  0.28003630  0.93944610     0.34700
H3030       H  0.81137380  0.15295825  0.61928555     0.27300
H3031       H  0.74009320  0.99340571  0.97862155     0.40100
H3032       H  0.81627453  0.13809678  0.92992950     0.30200
H3033       H  0.82114985  0.18293647  0.97232390     0.37800
H3034       H  0.71381592  0.02837971  0.53310337     0.29700
H3035       H  0.72029615  0.08739554  0.87354472     0.29700
H3036       H  0.79507460  0.23532296  0.01448747     0.30000
C3037       C  0.57073674  0.14812177  0.92146229     0.79200
N3038       N  0.60204610  0.15224221  0.93535547    -0.79100
C3039       C  0.61836299  0.13248301  0.92278898     0.81600
N3040       N  0.60333426  0.10783637  0.89648338    -0.79100
C3041       C  0.57214384  0.10289089  0.88189122     0.81700
N3042       N  0.55549061  0.12307133  0.89466045    -0.80800
C3043       C  0.82095175  0.02360050  0.92127949     0.79200
N3044       N  0.85228123  0.02746806  0.93520474    -0.79100
C3045       C  0.86852653  0.00728301  0.92286317     0.81600
N3046       N  0.85338659  0.23256102  0.89674635    -0.79100
C3047       C  0.82217804  0.22787166  0.88211221     0.81700
N3048       N  0.80557142  0.24841953  0.89466083    -0.80800
C3049       C  0.70895546  0.20746814  0.58533658     0.79200
N3050       N  0.72461501  0.23269428  0.61175129    -0.77900
C3051       C  0.70853045  0.00291294  0.62522876     0.81600
N3052       N  0.67744715  0.99778865  0.61178410    -0.79100
C3053       C  0.66196627  0.22312534  0.58567098     0.81700
N3054       N  0.67774398  0.20330892  0.57240563    -0.80800
Zr3055     Zr  0.55559136  0.18467251  0.52150953     2.17500
O3056       O  0.56324836  0.12189959  0.51396525    -0.52400
O3057       O  0.61178586  0.19648797  0.54992112    -0.75600
O3058       O  0.56511362  0.16258173  0.97256971    -0.82400
O3059       O  0.53798954  0.17743476  0.60349418    -0.84100
O3060       O  0.53641140  0.19484380  0.92150535    -0.79700
O3061       O  0.56746587  0.15473097  0.57889247    -0.91400
O3062       O  0.61606273  0.00441048  0.56893824    -0.77300
O3063       O  0.56093975  0.23853220  0.99434190    -0.86800
O3064       O  0.56165080  0.23082666  0.56294372    -0.86500
O3065       O  0.50837658  0.19013027  0.96637575    -0.73300
O3066       O  0.50903299  0.18340783  0.52838277    -0.85400
Zr3067     Zr  0.97459369  0.04533959  0.98599616     2.26400
Zr3068     Zr  0.51333514  0.24550658  0.93932656     2.06300
Zr3069     Zr  0.51465165  0.23238986  0.56856160     2.10000
Zr3070     Zr  0.56732230  0.03472349  0.53613107     1.78800
O3071       O  0.97680618  0.20583046  0.58442748    -0.94200
O3072       O  0.58573270  0.06418251  0.99739326    -0.42000
O3073       O  0.52057048  0.03630876  0.54163112    -0.78600
O3074       O  0.52155713  0.04455505  0.98026807    -0.97300
O3075       O  0.96668170  0.24747452  0.94528041    -0.90600
O3076       O  0.96794316  0.24157233  0.51338418    -0.93500
C3077       C  0.62782783  0.22403558  0.56732448     1.00300
C3078       C  0.55796150  0.15482261  0.60302136     1.13200
C3079       C  0.55549559  0.16917123  0.93900860     1.04000
O3080       O  0.54392175  0.01600691  0.91082845    -0.95600
O3081       O  0.99385609  0.05305141  0.90618341    -0.91400
O3082       O  0.96238683  0.07529390  0.92837567    -0.84500
C3083       C  0.97344312  0.07580705  0.90562153     1.10600
O3084       O  0.92537324  0.14322442  0.95362754    -0.97600
Zr3085     Zr  0.96225938  0.19360636  0.97353338     1.88900
O3086       O  0.91837027  0.03498412  0.95750117    -0.74300
O3087       O  0.96461847  0.22542465  0.88981031    -0.53500
O3088       O  0.95121581  0.15901390  0.92000687    -0.98200
O3089       O  0.94466548  0.16134443  0.51159962    -0.55400
O3090       O  0.91435109  0.22593501  0.94160130    -0.74800
C3091       C  0.90255412  0.25672253  0.94163001     0.97600
O3092       O  0.97944440  0.11050534  0.99300866    -0.63600
O3093       O  0.55398630  0.00535447  0.62575426    -0.58400
O3094       O  0.96399899  0.06796986  0.53382991    -0.95100
O3095       O  0.99228018  0.03503408  0.58461788    -0.93500
O3096       O  0.61178994  0.07079225  0.57750361    -0.93900
O3097       O  0.56423385  0.07855166  0.57737673    -0.92600
C3098       C  0.97369716  0.06117445  0.56733504     1.16400
H3099       H  0.57931606  0.22601408  0.58587954     0.32400
H3100       H  0.52365615  0.06730481  0.97045948     0.43200
H3101       H  0.95005131  0.24340177  0.51767736     0.36700
H3102       H  0.50648560  0.16952442  0.95142696     0.33200
H3103       H  0.60476388  0.05008877  0.50144860     0.25000
H3104       H  0.95373841  0.24737048  0.87641971     0.30900
H3105       H  0.93390466  0.17236359  0.90057723     0.36900
H3106       H  0.62577325  0.07320223  0.56633553     0.31300
H3107       H  0.57205871  0.98890239  0.63363910     0.30200
H3108       H  0.98154337  0.17967598  0.58755292     0.31900
H3109       H  0.93512068  0.17978513  0.02036525     0.30800
H3110       H  0.54405994  0.09131271  0.56527956     0.34800
H3111       H  0.99557656  0.11391585  0.51843947     0.27600
H3112       H  0.58218541  0.11650300  0.53634943     0.31800
H3113       H  0.90460638  0.15430023  0.93937464     0.34700
H3114       H  0.56119938  0.02807813  0.61959958     0.27300
H3115       H  0.99007844  0.11841993  0.97900074     0.40100
H3116       H  0.56576990  0.01325023  0.92954335     0.30200
H3117       H  0.57096852  0.05781472  0.97241344     0.37800
H3118       H  0.96350614  0.15307875  0.53295472     0.29700
H3119       H  0.97058059  0.21208845  0.87364377     0.29700
H3120       H  0.54601946  0.10973854  0.01555216     0.30000
C3121       C  0.96081012  0.39808757  0.33627887     0.79200
N3122       N  0.97604250  0.37304969  0.36310122    -0.79100
C3123       C  0.95937961  0.35291661  0.37589415     0.81600
N3124       N  0.92819051  0.35790206  0.36129621    -0.79100
C3125       C  0.91318429  0.38256136  0.33498798     0.81700
N3126       N  0.92951291  0.40226866  0.32240691    -0.80800
Zr3127     Zr  0.72588706  0.31005926  0.23647743     2.17500
O3128       O  0.71875191  0.49744930  0.24508424    -0.52400
O3129       O  0.66973052  0.32207348  0.20805806    -0.75600
O3130       O  0.71600978  0.28840232  0.28530002    -0.82400
O3131       O  0.74339027  0.30236454  0.15458195    -0.84100
O3132       O  0.74517722  0.32008698  0.33661555    -0.79700
O3133       O  0.71378093  0.27984705  0.17910036    -0.91400
O3134       O  0.66546717  0.38002407  0.18928313    -0.77300
O3135       O  0.72055679  0.36387205  0.26356981    -0.86800
O3136       O  0.71994552  0.35620061  0.19506063    -0.86500
O3137       O  0.77306358  0.31540868  0.29147959    -0.73300
O3138       O  0.77249108  0.30854711  0.22966489    -0.85400
Zr3139     Zr  0.80702742  0.42046168  0.27193767     2.26400
Zr3140     Zr  0.76811462  0.37070572  0.31861258     2.06300
Zr3141     Zr  0.76696482  0.35741981  0.18942873     2.10000
Zr3142     Zr  0.71440927  0.41003558  0.22193067     1.78800
O3143       O  0.80463477  0.33054482  0.17346518    -0.94200
O3144       O  0.69581010  0.43945900  0.26062043    -0.42000
O3145       O  0.76115899  0.41128080  0.21645353    -0.78600
O3146       O  0.76007453  0.41979708  0.27779024    -0.97300
O3147       O  0.81481974  0.37262773  0.31266605    -0.90600
O3148       O  0.81359709  0.36665976  0.24455727    -0.93500
C3149       C  0.65371865  0.34974275  0.19089975     1.00300
C3150       C  0.72336754  0.27978551  0.15502544     1.13200
C3151       C  0.72582150  0.29470906  0.31894926     1.04000
O3152       O  0.73678363  0.39126169  0.34620991    -0.95600
O3153       O  0.78758369  0.42805713  0.35188037    -0.91400
O3154       O  0.81911871  0.45009601  0.32968432    -0.84500
C3155       C  0.80807014  0.45068622  0.35244407     1.10600
O3156       O  0.85632010  0.51864886  0.30454047    -0.97600
Zr3157     Zr  0.81924454  0.31879656  0.28438183     1.88900
O3158       O  0.86332831  0.41053831  0.30071955    -0.74300
O3159       O  0.81703446  0.35085813  0.36808946    -0.53500
O3160       O  0.83022862  0.28425077  0.33792803    -0.98200
O3161       O  0.83660322  0.28609931  0.24629367    -0.55400
O3162       O  0.86725675  0.35116394  0.31561365    -0.74800
C3163       C  0.87909930  0.38206335  0.31614816     0.97600
O3164       O  0.80210759  0.48563678  0.26525229    -0.63600
O3165       O  0.72767686  0.38009686  0.13212867    -0.58400
O3166       O  0.81763062  0.44309712  0.22415541    -0.95100
O3167       O  0.78930213  0.41019707  0.17334026    -0.93500
O3168       O  0.67067776  0.44680851  0.18022369    -0.93900
O3169       O  0.71840242  0.45421750  0.18159212    -0.92600
C3170       C  0.80792011  0.43633376  0.19061919     1.16400
H3171       H  0.70222384  0.35149186  0.17213735     0.32400
H3172       H  0.75796884  0.44251044  0.28764631     0.43200
H3173       H  0.83149654  0.36845826  0.24027406     0.36700
H3174       H  0.77489648  0.29479504  0.30639669     0.33200
H3175       H  0.67635676  0.42645031  0.25563552     0.25000
H3176       H  0.82801439  0.37285204  0.38127551     0.30900
H3177       H  0.84745989  0.29767375  0.35737921     0.36900
H3178       H  0.65637999  0.44925150  0.19096766     0.31300
H3179       H  0.70978949  0.36334643  0.12415340     0.30200
H3180       H  0.79950189  0.30450022  0.16978454     0.31900
H3181       H  0.84638077  0.30455322  0.23765747     0.30800
H3182       H  0.73846282  0.46710379  0.19428132     0.34800
H3183       H  0.78637833  0.48918988  0.24000905     0.27600
H3184       H  0.69988474  0.49169156  0.22275926     0.31800
H3185       H  0.87708085  0.52986983  0.31842621     0.34700
H3186       H  0.72015622  0.40260862  0.13826538     0.27300
H3187       H  0.79121719  0.24334345  0.27905458     0.40100
H3188       H  0.71504475  0.38739632  0.32758397     0.30200
H3189       H  0.71037453  0.43271895  0.28556232     0.37800
H3190       H  0.81771575  0.27833065  0.22473225     0.29700
H3191       H  0.81127669  0.33767182  0.38449935     0.29700
H3192       H  0.73599504  0.48525896  0.24317843     0.30000
C3193       C  0.57258896  0.33262625  0.17263212     0.79200
N3194       N  0.55683501  0.35773230  0.14616510    -0.79100
C3195       C  0.57285439  0.37815410  0.13279111     0.81600
N3196       N  0.60398153  0.37332321  0.14634415    -0.79100
C3197       C  0.61958741  0.34882669  0.17261990     0.81700
N3198       N  0.60384431  0.32878234  0.18575890    -0.80800
C3199       C  0.82270167  0.45758236  0.17266542     0.79200
N3200       N  0.80706326  0.48271806  0.14614447    -0.79100
C3201       C  0.82316412  0.25292422  0.13263280     0.81600
N3202       N  0.85423967  0.24773620  0.14608288    -0.79100
C3203       C  0.86973250  0.47319439  0.17240767     0.81700
N3204       N  0.85392915  0.45345833  0.18570125    -0.80800
Zr3205     Zr  0.97608467  0.43463017  0.23633751     2.17500
O3206       O  0.96835664  0.37188840  0.24385049    -0.52400
O3207       O  0.91989821  0.44644950  0.20796038    -0.75600
O3208       O  0.96643174  0.41250993  0.28515579    -0.82400
O3209       O  0.99382605  0.42732754  0.15444716    -0.84100
O3210       O  0.99514493  0.44475523  0.33622898    -0.79700
O3211       O  0.96417800  0.40480038  0.17889930    -0.91400
O3212       O  0.91559863  0.25441972  0.18916327    -0.77300
O3213       O  0.97070746  0.48843545  0.26344074    -0.86800
O3214       O  0.97007367  0.48081787  0.19495238    -0.86500
O3215       O  0.52321976  0.44012070  0.29138993    -0.73300
O3216       O  0.52266519  0.43333701  0.22950228    -0.85400
Zr3217     Zr  0.55697901  0.29534719  0.27170100     2.26400
Zr3218     Zr  0.51823598  0.49547923  0.31843689     2.06300
Zr3219     Zr  0.51712593  0.48233539  0.18935877     2.10000
Zr3220     Zr  0.96440084  0.28469937  0.22167715     1.78800
O3221       O  0.55485836  0.45587814  0.17329883    -0.94200
O3222       O  0.94588797  0.31417112  0.26042401    -0.42000
O3223       O  0.51111003  0.28624549  0.21618142    -0.78600
O3224       O  0.51003429  0.29461737  0.27752826    -0.97300
O3225       O  0.56492364  0.49744739  0.31251247    -0.90600
O3226       O  0.56370941  0.49150866  0.24448968    -0.93500
C3227       C  0.90386945  0.47408283  0.19075021     1.00300
C3228       C  0.97375027  0.40481986  0.15483228     1.13200
C3229       C  0.97605421  0.41909763  0.31872043     1.04000
O3230       O  0.98762665  0.26596023  0.34693453    -0.95600
O3231       O  0.53777171  0.30298067  0.35158877    -0.91400
O3232       O  0.56917621  0.32529488  0.32933575    -0.84500
C3233       C  0.55816006  0.32576080  0.35213009     1.10600
O3234       O  0.60616911  0.39312609  0.30427483    -0.97600
Zr3235     Zr  0.56934656  0.44356268  0.28426158     1.88900
O3236       O  0.61321192  0.28507297  0.30026058    -0.74300
O3237       O  0.56682865  0.47522644  0.36813771    -0.53500
O3238       O  0.58041376  0.40887775  0.33774335    -0.98200
O3239       O  0.58683105  0.41125216  0.24607373    -0.55400
O3240       O  0.61726344  0.47587780  0.31603145    -0.74800
C3241       C  0.62904974  0.50671662  0.31618320     0.97600
O3242       O  0.55211066  0.36051715  0.26465134    -0.63600
O3243       O  0.97787354  0.25534878  0.13219557    -0.58400
O3244       O  0.56762719  0.31800468  0.22405713    -0.95100
O3245       O  0.53932646  0.28512463  0.17323837    -0.93500
O3246       O  0.92001451  0.32060451  0.17987492    -0.93900
O3247       O  0.96790182  0.32866877  0.18078115    -0.92600
C3248       C  0.55790695  0.31126184  0.19053781     1.16400
H3249       H  0.95236838  0.47605743  0.17203371     0.32400
H3250       H  0.50795208  0.31736589  0.28734996     0.43200
H3251       H  0.58161119  0.49334579  0.24021827     0.36700
H3252       H  0.52511167  0.41952784  0.30635234     0.33200
H3253       H  0.92662609  0.30088945  0.25574817     0.25000
H3254       H  0.57776803  0.49714116  0.38153692     0.30900
H3255       H  0.59746835  0.42244776  0.35725779     0.36900
H3256       H  0.90606828  0.32340427  0.19104895     0.31300
H3257       H  0.95971948  0.23903181  0.12435490     0.30200
H3258       H  0.55010639  0.42973002  0.17009599     0.31900
H3259       H  0.59629819  0.42986526  0.23721679     0.30800
H3260       H  0.98798954  0.34156178  0.19316219     0.34800
H3261       H  0.53616553  0.36396850  0.23948342     0.27600
H3262       H  0.94968286  0.36632776  0.22124728     0.31800
H3263       H  0.62698055  0.40421455  0.31818875     0.34700
H3264       H  0.97079494  0.27817244  0.13834712     0.27300
H3265       H  0.54151223  0.36845265  0.27869220     0.40100
H3266       H  0.96577816  0.26308054  0.32825850     0.30200
H3267       H  0.96062843  0.30774222  0.28539587     0.37800
H3268       H  0.56796926  0.40315707  0.22465053     0.29700
H3269       H  0.56075021  0.46198929  0.38425344     0.29700
H3270       H  0.98576932  0.35971396  0.24228417     0.30000
C3271       C  0.71064021  0.27353025  0.33646832     0.79200
N3272       N  0.67931574  0.27744877  0.32253474    -0.79100
C3273       C  0.66304988  0.25735495  0.33491454     0.81600
N3274       N  0.67818750  0.48252676  0.36107307    -0.79100
C3275       C  0.70939089  0.47780288  0.37569103     0.81700
N3276       N  0.72599880  0.49833733  0.36312585    -0.80800
C3277       C  0.95900032  0.33266522  0.08506806     0.79200
N3278       N  0.92775191  0.32875432  0.07199699    -0.79100
C3279       C  0.91201141  0.34876020  0.08517394     0.81600
N3280       N  0.92762412  0.37326738  0.11143938    -0.79100
C3281       C  0.95874138  0.37815742  0.12492881     0.81700
N3282       N  0.97474856  0.35778494  0.11151257    -0.80800
Zr3283     Zr  0.80567083  0.31002416  0.02128054     2.17500
O3284       O  0.81248481  0.49736955  0.01252554    -0.52400
O3285       O  0.86184448  0.32205069  0.04959314    -0.75600
O3286       O  0.81560513  0.28844690  0.47247891    -0.82400
O3287       O  0.78826808  0.30235885  0.10320090    -0.84100
O3288       O  0.78634978  0.32009177  0.42116395    -0.79700
O3289       O  0.81789713  0.27982361  0.07870243    -0.91400
O3290       O  0.86609481  0.37985794  0.06874951    -0.77300
O3291       O  0.81094323  0.36379259  0.49408513    -0.86800
O3292       O  0.81161419  0.35611187  0.06274642    -0.86500
O3293       O  0.75849024  0.31528878  0.46633308    -0.73300
O3294       O  0.75907566  0.30856471  0.02810332    -0.85400
Zr3295     Zr  0.72451383  0.42038130  0.48592983     2.26400
Zr3296     Zr  0.76328935  0.37060210  0.43912785     2.06300
Zr3297     Zr  0.76459391  0.35739140  0.06836063     2.10000
Zr3298     Zr  0.81717830  0.40995253  0.03590046     1.78800
O3299       O  0.72671955  0.33045591  0.08394838    -0.94200
O3300       O  0.83562790  0.43950317  0.49693733    -0.42000
O3301       O  0.77041100  0.41122887  0.04133801    -0.78600
O3302       O  0.77141037  0.41972036  0.47995099    -0.97300
O3303       O  0.71664063  0.37253824  0.44518080    -0.90600
O3304       O  0.71795414  0.36664608  0.01326273    -0.93500
C3305       C  0.87786177  0.34964969  0.06693337     1.00300
C3306       C  0.80830238  0.27978255  0.10277310     1.13200
C3307       C  0.80575277  0.29475386  0.43882612     1.04000
O3308       O  0.79408416  0.39117871  0.41090415    -0.95600
O3309       O  0.74381976  0.42794225  0.40586202    -0.91400
O3310       O  0.71250139  0.45020197  0.42826460    -0.84500
C3311       C  0.72346092  0.45069625  0.40541442     1.10600
O3312       O  0.67505125  0.51880600  0.45394961    -0.97600
Zr3313     Zr  0.71237662  0.31869773  0.47356084     1.88900
O3314       O  0.66823896  0.41029741  0.45723664    -0.74300
O3315       O  0.71434822  0.35061963  0.38977008    -0.53500
O3316       O  0.70144556  0.28412115  0.42005818    -0.98200
O3317       O  0.69491244  0.28602286  0.01140513    -0.55400
O3318       O  0.66432979  0.35096442  0.44219936    -0.74800
C3319       C  0.65247749  0.38183475  0.44175934     0.97600
O3320       O  0.72924148  0.48553290  0.49291989    -0.63600
O3321       O  0.80370341  0.38052547  0.12554299    -0.58400
O3322       O  0.71391295  0.44299158  0.03377242    -0.95100
O3323       O  0.74225447  0.41005992  0.08456039    -0.93500
O3324       O  0.86093658  0.44676258  0.07749354    -0.93900
O3325       O  0.81296615  0.45405946  0.07617453    -0.92600
C3326       C  0.72363125  0.43619601  0.06730937     1.16400
H3327       H  0.82930740  0.35137763  0.08568836     0.32400
H3328       H  0.77347069  0.44244059  0.47007470     0.43200
H3329       H  0.70005627  0.36841992  0.01755358     0.36700
H3330       H  0.75667635  0.29466997  0.45142744     0.33200
H3331       H  0.85517735  0.42618885  0.00208324     0.25000
H3332       H  0.70335170  0.37260203  0.37657070     0.30900
H3333       H  0.68393430  0.29725488  0.40066579     0.36900
H3334       H  0.87522069  0.44914564  0.06672558     0.31300
H3335       H  0.82171483  0.36395764  0.13359640     0.30200
H3336       H  0.73210029  0.30449613  0.08805668     0.31900
H3337       H  0.68496193  0.30418961  0.51994820     0.30800
H3338       H  0.79301049  0.46712278  0.06335953     0.34800
H3339       H  0.74511835  0.48916915  0.01792014     0.27600
H3340       H  0.83126878  0.49142616  0.03486838     0.31800
H3341       H  0.65434355  0.53008745  0.43988582     0.34700
H3342       H  0.81105690  0.40309860  0.11929577     0.27300
H3343       H  0.74021854  0.24343470  0.47915311     0.40100
H3344       H  0.81590370  0.38822358  0.42964341     0.30200
H3345       H  0.82085209  0.43312651  0.47196478     0.37800
H3346       H  0.71379088  0.27840117  0.03305193     0.29700
H3347       H  0.72011783  0.33746008  0.37335383     0.29700
H3348       H  0.79509294  0.48526605  0.51451272     0.30000
C3349       C  0.57075901  0.39800852  0.42155663     0.79200
N3350       N  0.60207247  0.40208999  0.43550161    -0.79100
C3351       C  0.61839427  0.38234782  0.42293577     0.81600
N3352       N  0.60336878  0.35774624  0.39658118    -0.79100
C3353       C  0.57216888  0.35284411  0.38193158     0.81700
N3354       N  0.55550870  0.37301434  0.39469966    -0.80800
C3355       C  0.82091899  0.27359464  0.42129025     0.79200
N3356       N  0.85223772  0.27755087  0.43518015    -0.79100
C3357       C  0.86850682  0.25740492  0.42284370     0.81600
N3358       N  0.85337175  0.48251125  0.39674285    -0.79100
C3359       C  0.82216768  0.47778838  0.38216342     0.81700
N3360       N  0.80557790  0.49837199  0.39471068    -0.80800
C3361       C  0.70889414  0.45743431  0.08532122     0.79200
N3362       N  0.72454276  0.48267847  0.11171984    -0.77900
C3363       C  0.70848296  0.25290205  0.12519002     0.81600
N3364       N  0.67740894  0.24774438  0.11178961    -0.79100
C3365       C  0.66189539  0.47312141  0.08562505     0.81700
N3366       N  0.67768140  0.45327424  0.07238704    -0.80800
Zr3367     Zr  0.55553868  0.43471965  0.02141778     2.17500
O3368       O  0.56321621  0.37196681  0.01384891    -0.52400
O3369       O  0.61172989  0.44644648  0.05000218    -0.75600
O3370       O  0.56517072  0.41244178  0.47267119    -0.82400
O3371       O  0.53786050  0.42742522  0.10333988    -0.84100
O3372       O  0.53643117  0.44470762  0.42162037    -0.79700
O3373       O  0.56740610  0.40479492  0.07880274    -0.91400
O3374       O  0.61602325  0.25440599  0.06885704    -0.77300
O3375       O  0.56096695  0.48842978  0.49436359    -0.86800
O3376       O  0.56156870  0.48090940  0.06280188    -0.86500
O3377       O  0.50840042  0.44002382  0.46646294    -0.73300
O3378       O  0.50897352  0.43342364  0.02826069    -0.85400
Zr3379     Zr  0.97462343  0.29539241  0.48613992     2.26400
Zr3380     Zr  0.51333097  0.49539716  0.43938305     2.06300
Zr3381     Zr  0.51456678  0.48240942  0.06842269     2.10000
Zr3382     Zr  0.56724484  0.28470274  0.03606788     1.78800
O3383       O  0.97688797  0.45594941  0.08455669    -0.94200
O3384       O  0.58606218  0.31397626  0.49755139    -0.42000
O3385       O  0.52048865  0.28625794  0.04155503    -0.78600
O3386       O  0.52164797  0.29460368  0.48037551    -0.97300
O3387       O  0.96669044  0.49749148  0.44530185    -0.90600
O3388       O  0.96796781  0.49148394  0.01337783    -0.93500
C3389       C  0.62776253  0.47406121  0.06724141     1.00300
C3390       C  0.55786586  0.40484417  0.10289819     1.13200
C3391       C  0.55552333  0.41903592  0.43911078     1.04000
O3392       O  0.54404590  0.26622816  0.41105871    -0.95600
O3393       O  0.99376052  0.30301660  0.40622168    -0.91400
O3394       O  0.96238365  0.32535995  0.42850328    -0.84500
C3395       C  0.97338200  0.32581091  0.40569079     1.10600
O3396       O  0.92546798  0.39315706  0.45390612    -0.97600
Zr3397     Zr  0.96226833  0.44362156  0.47355727     1.88900
O3398       O  0.91836704  0.28510995  0.45754053    -0.74300
O3399       O  0.96463453  0.47524741  0.38985315    -0.53500
O3400       O  0.95125965  0.40886743  0.42013906    -0.98200
O3401       O  0.94488505  0.41098122  0.01172346    -0.55400
O3402       O  0.91434346  0.47593058  0.44157714    -0.74800
C3403       C  0.90254876  0.50673259  0.44156946     0.97600
O3404       O  0.97961826  0.36053874  0.49328272    -0.63600
O3405       O  0.55388429  0.25546864  0.12556771    -0.58400
O3406       O  0.96401139  0.31808622  0.03366775    -0.95100
O3407       O  0.99225825  0.28517361  0.08448020    -0.93500
O3408       O  0.61173008  0.32059940  0.07766476    -0.93900
O3409       O  0.56374948  0.32872137  0.07692185    -0.92600
C3410       C  0.97369796  0.31132149  0.06717576     1.16400
H3411       H  0.57924650  0.47613453  0.08573794     0.32400
H3412       H  0.52373045  0.31735608  0.47055681     0.43200
H3413       H  0.95008148  0.49330046  0.01768163     0.36700
H3414       H  0.50649822  0.41941727  0.45151115     0.33200
H3415       H  0.60482694  0.30058618  0.00166043     0.25000
H3416       H  0.95369755  0.49714889  0.37641804     0.30900
H3417       H  0.93403576  0.42226076  0.40065072     0.36900
H3418       H  0.62563201  0.32329336  0.06642056     0.31300
H3419       H  0.57197183  0.23903593  0.13348464     0.30200
H3420       H  0.98153210  0.42977194  0.08757018     0.31900
H3421       H  0.93536622  0.42992548  0.52065418     0.30800
H3422       H  0.54365346  0.34159928  0.06455680     0.34800
H3423       H  0.99548111  0.36397857  0.01804566     0.27600
H3424       H  0.58188611  0.36637075  0.03644517     0.31800
H3425       H  0.90468583  0.40416889  0.43958264     0.34700
H3426       H  0.56106900  0.27817576  0.11934566     0.27300
H3427       H  0.99023985  0.36844001  0.47925662     0.40100
H3428       H  0.56588668  0.26338695  0.42976880     0.30200
H3429       H  0.57097046  0.30829362  0.47250955     0.37800
H3430       H  0.96376529  0.40289988  0.03313410     0.29700
H3431       H  0.97059919  0.46188444  0.37370274     0.29700
H3432       H  0.54619932  0.35958306  0.51606334     0.30000
C3433       C  0.96091810  0.39817327  0.83639292     0.79200
N3434       N  0.97614237  0.37308265  0.86316065    -0.79100
C3435       C  0.95946711  0.35290877  0.87590401     0.81600
N3436       N  0.92828404  0.35791344  0.86132122    -0.79100
C3437       C  0.91328804  0.38261360  0.83505941     0.81700
N3438       N  0.92962149  0.40235479  0.82251366    -0.80800
Zr3439     Zr  0.72600418  0.31001660  0.73659685     2.17500
O3440       O  0.71891050  0.49734385  0.74525698    -0.52400
O3441       O  0.66981513  0.32189950  0.70803254    -0.75600
O3442       O  0.71597451  0.28855714  0.78535948    -0.82400
O3443       O  0.74346401  0.30236316  0.65464925    -0.84100
O3444       O  0.74526466  0.32014604  0.83670427    -0.79700
O3445       O  0.71391817  0.27979463  0.67923222    -0.91400
O3446       O  0.66553882  0.37995709  0.68954911    -0.77300
O3447       O  0.72070660  0.36381406  0.76374672    -0.86800
O3448       O  0.72004424  0.35615162  0.69516922    -0.86500
O3449       O  0.77318845  0.31538437  0.79160270    -0.73300
O3450       O  0.77260998  0.30855080  0.72978248    -0.85400
Zr3451     Zr  0.80712727  0.42048675  0.77196657     2.26400
Zr3452     Zr  0.76830093  0.37070048  0.81874335     2.06300
Zr3453     Zr  0.76705846  0.35740387  0.68951105     2.10000
Zr3454     Zr  0.71450463  0.40995482  0.72207870     1.78800
O3455       O  0.80478456  0.33054133  0.67363121    -0.94200
O3456       O  0.69588729  0.43932568  0.76077980    -0.42000
O3457       O  0.76123135  0.41122694  0.71654965    -0.78600
O3458       O  0.76020465  0.41977429  0.77788524    -0.97300
O3459       O  0.81497750  0.37268365  0.81275427    -0.90600
O3460       O  0.81369232  0.36665477  0.74462643    -0.93500
C3461       C  0.65379578  0.34961786  0.69100236     1.00300
C3462       C  0.72346689  0.27976196  0.65512400     1.13200
C3463       C  0.72582454  0.29484511  0.81901630     1.04000
O3464       O  0.73719287  0.39128268  0.84658346    -0.95600
O3465       O  0.78778017  0.42807048  0.85195780    -0.91400
O3466       O  0.81910824  0.45034296  0.82957174    -0.84500
C3467       C  0.80813940  0.45082670  0.85240690     1.10600
O3468       O  0.85637685  0.51863562  0.80458043    -0.97600
Zr3469     Zr  0.81935952  0.31882182  0.78450248     1.88900
O3470       O  0.86343461  0.41060991  0.80087369    -0.74300
O3471       O  0.81720632  0.35090371  0.86828025    -0.53500
O3472       O  0.83035065  0.28460139  0.83823287    -0.98200
O3473       O  0.83685640  0.28606720  0.74658139    -0.55400
O3474       O  0.86737990  0.35118308  0.81558982    -0.74800
C3475       C  0.87921021  0.38211076  0.81621517     0.97600
O3476       O  0.80208799  0.48563010  0.76494274    -0.63600
O3477       O  0.72784155  0.38028393  0.63226324    -0.58400
O3478       O  0.81780923  0.44301958  0.72421029    -0.95100
O3479       O  0.78938650  0.41017257  0.67338659    -0.93500
O3480       O  0.67073282  0.44665972  0.68037405    -0.93900
O3481       O  0.71828914  0.45419579  0.68165294    -0.92600
C3482       C  0.80804489  0.43628032  0.69066092     1.16400
H3483       H  0.70231178  0.35145543  0.67224936     0.32400
H3484       H  0.75809542  0.44249676  0.78772149     0.43200
H3485       H  0.83159037  0.36843725  0.74033686     0.36700
H3486       H  0.77500242  0.29477080  0.80651627     0.33200
H3487       H  0.67662619  0.42603234  0.75608152     0.25000
H3488       H  0.82817809  0.37292426  0.88141414     0.30900
H3489       H  0.84769375  0.29797742  0.85759468     0.36900
H3490       H  0.65653887  0.44926629  0.69124026     0.31300
H3491       H  0.70988562  0.36363724  0.62428065     0.30200
H3492       H  0.79966699  0.30449181  0.66997326     0.31900
H3493       H  0.84672510  0.30449995  0.73803884     0.30800
H3494       H  0.73845459  0.46690590  0.69414620     0.34800
H3495       H  0.78630973  0.48906366  0.73970047     0.27600
H3496       H  0.69990500  0.49159255  0.72307505     0.31800
H3497       H  0.87712077  0.52987486  0.81853486     0.34700
H3498       H  0.72042711  0.40284566  0.63845278     0.27300
H3499       H  0.79144108  0.24345612  0.77888343     0.40100
H3500       H  0.71542186  0.38781193  0.82789100     0.30200
H3501       H  0.71063607  0.43293157  0.78575679     0.37800
H3502       H  0.81799341  0.27837309  0.72495406     0.29700
H3503       H  0.81142847  0.33780117  0.88471637     0.29700
H3504       H  0.73602345  0.48513825  0.74308606     0.30000
C3505       C  0.57263742  0.33257260  0.67269152     0.79200
N3506       N  0.55691301  0.35769405  0.64623229    -0.79100
C3507       C  0.57295686  0.37809817  0.63287865     0.81600
N3508       N  0.60407910  0.37322338  0.64642619    -0.79100
C3509       C  0.61965974  0.34870226  0.67268682     0.81700
N3510       N  0.60389263  0.32868843  0.68582089    -0.80800
C3511       C  0.82279257  0.45753511  0.67267408     0.79200
N3512       N  0.80714283  0.48272368  0.64621293    -0.79100
C3513       C  0.82318170  0.25285877  0.63263788     0.81600
N3514       N  0.85424821  0.24767594  0.64601200    -0.79100
C3515       C  0.86979787  0.47318284  0.67237677     0.81700
N3516       N  0.85401167  0.45339700  0.68565512    -0.80800
Zr3517     Zr  0.97612636  0.43464374  0.73642897     2.17500
O3518       O  0.96818194  0.37194161  0.74395674    -0.52400
O3519       O  0.91996103  0.44655318  0.70818536    -0.75600
O3520       O  0.96662225  0.41247585  0.78532242    -0.82400
O3521       O  0.99381039  0.42736653  0.65448702    -0.84100
O3522       O  0.99511383  0.44496895  0.83628828    -0.79700
O3523       O  0.96427658  0.40474103  0.67905206    -0.91400
O3524       O  0.91563074  0.25426864  0.68871728    -0.77300
O3525       O  0.97066689  0.48846111  0.76346238    -0.86800
O3526       O  0.97012597  0.48077979  0.69498754    -0.86500
O3527       O  0.52323208  0.44006726  0.79138338    -0.73300
O3528       O  0.52261411  0.43335205  0.72948026    -0.85400
Zr3529     Zr  0.55695462  0.29531018  0.77172859     2.26400
Zr3530     Zr  0.51823866  0.49543692  0.81842322     2.06300
Zr3531     Zr  0.51699664  0.48234294  0.68930244     2.10000
Zr3532     Zr  0.96434503  0.28461306  0.72164387     1.78800
O3533       O  0.55462014  0.45591077  0.67307466    -0.94200
O3534       O  0.94562566  0.31383348  0.76032362    -0.42000
O3535       O  0.51107370  0.28618514  0.71624055    -0.78600
O3536       O  0.50998862  0.29455479  0.77750924    -0.97300
O3537       O  0.56488672  0.49743180  0.81242321    -0.90600
O3538       O  0.56363044  0.49150234  0.74438917    -0.93500
C3539       C  0.90393172  0.47406132  0.69068455     1.00300
C3540       C  0.97379520  0.40480274  0.65493900     1.13200
C3541       C  0.97615227  0.41918710  0.81884364     1.04000
O3542       O  0.98747275  0.26628479  0.84667488    -0.95600
O3543       O  0.53773993  0.30295810  0.85159365    -0.91400
O3544       O  0.56911657  0.32529287  0.82931230    -0.84500
C3545       C  0.55810654  0.32575829  0.85210802     1.10600
O3546       O  0.60602290  0.39296747  0.80390174    -0.97600
Zr3547     Zr  0.56933771  0.44355393  0.78419181     1.88900
O3548       O  0.61320810  0.28512478  0.80047401    -0.74300
O3549       O  0.56693202  0.47526770  0.86802711    -0.53500
O3550       O  0.58060299  0.40897172  0.83779171    -0.98200
O3551       O  0.58682862  0.41134050  0.74595698    -0.55400
O3552       O  0.61724764  0.47590633  0.81596155    -0.74800
C3553       C  0.62901397  0.50677715  0.81617548     0.97600
O3554       O  0.55199337  0.36045135  0.76452588    -0.63600
O3555       O  0.97779425  0.25529604  0.63217614    -0.58400
O3556       O  0.56768276  0.31791556  0.72412096    -0.95100
O3557       O  0.53927027  0.28515509  0.67325604    -0.93500
O3558       O  0.91984587  0.32061394  0.68024383    -0.93900
O3559       O  0.96783080  0.32861206  0.68079041    -0.92600
C3560       C  0.55792198  0.31122918  0.69058390     1.16400
H3561       H  0.95247015  0.47596829  0.67204316     0.32400
H3562       H  0.50789637  0.31731803  0.78730024     0.43200
H3563       H  0.58151598  0.49335981  0.74008863     0.36700
H3564       H  0.52516076  0.41947644  0.80636381     0.33200
H3565       H  0.92681794  0.29987805  0.75623453     0.25000
H3566       H  0.57789266  0.49720607  0.88135724     0.30900
H3567       H  0.59782125  0.42245349  0.85720167     0.36900
H3568       H  0.90599265  0.32326367  0.69155700     0.31300
H3569       H  0.95968125  0.23890993  0.62431024     0.30200
H3570       H  0.55006445  0.42970910  0.67022388     0.31900
H3571       H  0.59601806  0.43002845  0.73683692     0.30800
H3572       H  0.98786074  0.34159954  0.69327703     0.34800
H3573       H  0.53604009  0.36383352  0.73934731     0.27600
H3574       H  0.94946997  0.36644943  0.72136972     0.31800
H3575       H  0.62685001  0.40394035  0.81804538     0.34700
H3576       H  0.97065198  0.27806125  0.63834784     0.27300
H3577       H  0.54139033  0.36840019  0.77855711     0.40100
H3578       H  0.96564274  0.26320586  0.82801096     0.30200
H3579       H  0.96073371  0.30817143  0.78536355     0.37800
H3580       H  0.56797071  0.40295344  0.72469155     0.29700
H3581       H  0.56094697  0.46205918  0.88423844     0.29700
H3582       H  0.98552894  0.35965326  0.74234563     0.30000
C3583       C  0.71065447  0.27367297  0.83654936     0.79200
N3584       N  0.67932995  0.27759525  0.82266435    -0.79100
C3585       C  0.66308212  0.25742828  0.83502040     0.81600
N3586       N  0.67816389  0.48260216  0.86107882    -0.79100
C3587       C  0.70937055  0.47788684  0.87569067     0.81700
N3588       N  0.72596971  0.49845079  0.86313939    -0.80800
C3589       C  0.95905553  0.33254876  0.58527198     0.79200
N3590       N  0.92780082  0.32869103  0.57215484    -0.79100
C3591       C  0.91204569  0.34876242  0.58526022     0.81600
N3592       N  0.92764888  0.37329989  0.61150188    -0.79100
C3593       C  0.95878164  0.37812621  0.62505091     0.81700
N3594       N  0.97480227  0.35767792  0.61170609    -0.80800
Zr3595     Zr  0.80571074  0.30999875  0.52130620     2.17500
O3596       O  0.81240648  0.49725886  0.51258896    -0.52400
O3597       O  0.86189464  0.32196763  0.54985445    -0.75600
O3598       O  0.81557539  0.28842992  0.97248488    -0.82400
O3599       O  0.78837525  0.30242471  0.60333499    -0.84100
O3600       O  0.78635416  0.32012046  0.92118529    -0.79700
O3601       O  0.81779118  0.27970611  0.57864144    -0.91400
O3602       O  0.86614333  0.38000563  0.56839558    -0.77300
O3603       O  0.81096847  0.36385553  0.99416708    -0.86800
O3604       O  0.81167425  0.35618462  0.56267938    -0.86500
O3605       O  0.75847249  0.31540274  0.96628528    -0.73300
O3606       O  0.75917775  0.30854882  0.52824351    -0.85400
Zr3607     Zr  0.72450520  0.42046317  0.98591398     2.26400
Zr3608     Zr  0.76337050  0.37072131  0.93916249     2.06300
Zr3609     Zr  0.76472390  0.35744542  0.56844551     2.10000
Zr3610     Zr  0.81717180  0.40998752  0.53573399     1.78800
O3611       O  0.72672839  0.33069253  0.58395210    -0.94200
O3612       O  0.83589816  0.43945423  0.99735980    -0.42000
O3613       O  0.77047023  0.41126831  0.54132528    -0.78600
O3614       O  0.77147007  0.41974264  0.98005809    -0.97300
O3615       O  0.71667782  0.37267664  0.94512828    -0.90600
O3616       O  0.71804790  0.36658635  0.51336633    -0.93500
C3617       C  0.87790288  0.34967974  0.56692948     1.00300
C3618       C  0.80829420  0.27973953  0.60279733     1.13200
C3619       C  0.80573415  0.29475365  0.93883784     1.04000
O3620       O  0.79443001  0.39148566  0.91131474    -0.95600
O3621       O  0.74385701  0.42805758  0.90587903    -0.91400
O3622       O  0.71248213  0.45024012  0.92823605    -0.84500
C3623       C  0.72345981  0.45077086  0.90540658     1.10600
O3624       O  0.67508438  0.51889384  0.95359428    -0.97600
Zr3625     Zr  0.71230804  0.31881534  0.97340717     1.88900
O3626       O  0.66820492  0.41038136  0.95715153    -0.74300
O3627       O  0.71441122  0.35084609  0.88976675    -0.53500
O3628       O  0.70128522  0.28430999  0.91983776    -0.98200
O3629       O  0.69511175  0.28586310  0.51165871    -0.55400
O3630       O  0.66427955  0.35108805  0.94197651    -0.74800
C3631       C  0.65243166  0.38194271  0.94160240     0.97600
O3632       O  0.72931051  0.48563124  0.99270953    -0.63600
O3633       O  0.80394039  0.38039879  0.62566084    -0.58400
O3634       O  0.71384236  0.44277893  0.53374610    -0.95100
O3635       O  0.74251122  0.41020055  0.58468335    -0.93500
O3636       O  0.86112993  0.44659548  0.57724352    -0.93900
O3637       O  0.81333461  0.45405579  0.57628849    -0.92600
C3638       C  0.72371327  0.43616419  0.56733738     1.16400
H3639       H  0.82940239  0.35149809  0.58560267     0.32400
H3640       H  0.77357219  0.44244510  0.97018446     0.43200
H3641       H  0.70016232  0.36835154  0.51768029     0.36700
H3642       H  0.75662738  0.29479578  0.95135378     0.33200
H3643       H  0.85489102  0.42625582  0.50156121     0.25000
H3644       H  0.70347799  0.37283044  0.87650972     0.30900
H3645       H  0.68379421  0.29750292  0.90047742     0.36900
H3646       H  0.87513894  0.44933413  0.56614670     0.31300
H3647       H  0.82189666  0.36375167  0.63365871     0.30200
H3648       H  0.73219886  0.30477390  0.58833477     0.31900
H3649       H  0.68497276  0.30441410  0.01989851     0.30800
H3650       H  0.79325925  0.46694167  0.56374953     0.34800
H3651       H  0.74510937  0.48901785  0.51811510     0.27600
H3652       H  0.83123961  0.49134727  0.53488964     0.31800
H3653       H  0.65439219  0.53016713  0.93940172     0.34700
H3654       H  0.81135736  0.40294266  0.61944369     0.27300
H3655       H  0.74012138  0.24343295  0.97874050     0.40100
H3656       H  0.81621380  0.38817804  0.93003234     0.30200
H3657       H  0.82118193  0.43309103  0.97236204     0.37800
H3658       H  0.71401560  0.27851500  0.53341123     0.29700
H3659       H  0.72017029  0.33756595  0.87340544     0.29700
H3660       H  0.79513145  0.48535440  0.01433885     0.30000
C3661       C  0.57071214  0.39811198  0.92144310     0.79200
N3662       N  0.60202341  0.40220545  0.93535763    -0.79100
C3663       C  0.61833971  0.38244145  0.92279939     0.81600
N3664       N  0.60330792  0.35779506  0.89649137    -0.79100
C3665       C  0.57211150  0.35287502  0.88187554     0.81700
N3666       N  0.55545640  0.37307897  0.89462553    -0.80800
C3667       C  0.82089903  0.27358269  0.92130514     0.79200
N3668       N  0.85223058  0.27746758  0.93524372    -0.79100
C3669       C  0.86848752  0.25732718  0.92288278     0.81600
N3670       N  0.85343267  0.48255017  0.89680766    -0.79100
C3671       C  0.82221686  0.47791086  0.88213065     0.81700
N3672       N  0.80560683  0.49850258  0.89464561    -0.80800
C3673       C  0.70896495  0.45741289  0.58531280     0.79200
N3674       N  0.72461569  0.48261877  0.61174944    -0.77900
C3675       C  0.70856834  0.25288125  0.62528882     0.81600
N3676       N  0.67749710  0.24769232  0.61191704    -0.79100
C3677       C  0.66194869  0.47311794  0.58555293     0.81700
N3678       N  0.67774286  0.45328699  0.57231878    -0.80800
Zr3679     Zr  0.55558302  0.43461877  0.52147987     2.17500
O3680       O  0.56334214  0.37185119  0.51399066    -0.52400
O3681       O  0.61177030  0.44645912  0.54985097    -0.75600
O3682       O  0.56516290  0.41265161  0.97257235    -0.82400
O3683       O  0.53802517  0.42740941  0.60347028    -0.84100
O3684       O  0.53634948  0.44479156  0.92145489    -0.79700
O3685       O  0.56748132  0.40468311  0.57885708    -0.91400
O3686       O  0.61610340  0.25428028  0.56906814    -0.77300
O3687       O  0.56093971  0.48850980  0.99428373    -0.86800
O3688       O  0.56167402  0.48079428  0.56290136    -0.86500
O3689       O  0.50838830  0.44013070  0.96638429    -0.73300
O3690       O  0.50904156  0.43338246  0.52837818    -0.85400
Zr3691     Zr  0.97459040  0.29532932  0.98601386     2.26400
Zr3692     Zr  0.51331749  0.49548236  0.93928244     2.06300
Zr3693     Zr  0.51469437  0.48237540  0.56856391     2.10000
Zr3694     Zr  0.56737471  0.28464267  0.53621024     1.78800
O3695       O  0.97676024  0.45584811  0.58428798    -0.94200
O3696       O  0.58580954  0.31420119  0.99736499    -0.42000
O3697       O  0.52059629  0.28624665  0.54165346    -0.78600
O3698       O  0.52153833  0.29459379  0.98022689    -0.97300
O3699       O  0.96669685  0.49742225  0.94535379    -0.90600
O3700       O  0.96794195  0.49155247  0.51335880    -0.93500
C3701       C  0.62781105  0.47403182  0.56719221     1.00300
C3702       C  0.55798504  0.40478656  0.60298998     1.13200
C3703       C  0.55548405  0.41917376  0.93898789     1.04000
O3704       O  0.54405849  0.26607054  0.91100388    -0.95600
O3705       O  0.99384552  0.30298481  0.90621111    -0.91400
O3706       O  0.96236175  0.32523411  0.92837797    -0.84500
C3707       C  0.97343429  0.32575135  0.90564239     1.10600
O3708       O  0.92542171  0.39312911  0.95370611    -0.97600
Zr3709     Zr  0.96229702  0.44352967  0.97359046     1.88900
O3710       O  0.91834938  0.28502717  0.95752893    -0.74300
O3711       O  0.96456296  0.47546656  0.88977459    -0.53500
O3712       O  0.95115011  0.40918885  0.91988923    -0.98200
O3713       O  0.94479420  0.41131153  0.51175044    -0.55400
O3714       O  0.91436492  0.47583356  0.94185996    -0.74800
C3715       C  0.90258647  0.50666926  0.94173941     0.97600
O3716       O  0.97952684  0.36050300  0.99288566    -0.63600
O3717       O  0.55393009  0.25523637  0.62580723    -0.58400
O3718       O  0.96399792  0.31796960  0.53383111    -0.95100
O3719       O  0.99236801  0.28512383  0.58465328    -0.93500
O3720       O  0.61182841  0.32066917  0.57769058    -0.93900
O3721       O  0.56423183  0.32855785  0.57735267    -0.92600
C3722       C  0.97374296  0.31122307  0.56735450     1.16400
H3723       H  0.57935921  0.47599355  0.58582435     0.32400
H3724       H  0.52361531  0.31734257  0.97040329     0.43200
H3725       H  0.95005298  0.49338914  0.51765660     0.36700
H3726       H  0.50650388  0.41951527  0.95145128     0.33200
H3727       H  0.60490169  0.30008280  0.50165360     0.25000
H3728       H  0.95370238  0.49743007  0.87640381     0.30900
H3729       H  0.93375834  0.42253443  0.90055573     0.36900
H3730       H  0.62588399  0.32300759  0.56661101     0.31300
H3731       H  0.57202728  0.23882853  0.63365018     0.30200
H3732       H  0.98168447  0.42974944  0.58775669     0.31900
H3733       H  0.93539211  0.42952645  0.02061873     0.30800
H3734       H  0.54404096  0.34128067  0.56523247     0.34800
H3735       H  0.99557041  0.36392949  0.51846005     0.27600
H3736       H  0.58228314  0.36645001  0.53637638     0.31800
H3737       H  0.90464158  0.40420073  0.93952834     0.34700
H3738       H  0.56110763  0.27801156  0.61969656     0.27300
H3739       H  0.99013955  0.36835320  0.97883429     0.40100
H3740       H  0.56588305  0.26325792  0.92976843     0.30200
H3741       H  0.57085049  0.30825403  0.97234110     0.37800
H3742       H  0.96366244  0.40317088  0.53314221     0.29700
H3743       H  0.97050223  0.46212962  0.87359067     0.29700
H3744       H  0.54579613  0.35979974  0.01540478     0.30000
C3745       C  0.96082892  0.64811930  0.33630846     0.79200
N3746       N  0.97605129  0.62302203  0.36307230    -0.79100
C3747       C  0.95938343  0.60285913  0.37583590     0.81600
N3748       N  0.92819989  0.60787017  0.36126357    -0.79100
C3749       C  0.91319876  0.63257402  0.33500173     0.81700
N3750       N  0.92953216  0.65231541  0.32244960    -0.80800
Zr3751     Zr  0.72592156  0.56007042  0.23651925     2.17500
O3752       O  0.71892887  0.74745919  0.24527983    -0.52400
O3753       O  0.66978264  0.57216412  0.20825154    -0.75600
O3754       O  0.71609356  0.53833533  0.28534716    -0.82400
O3755       O  0.74339153  0.55235925  0.15457203    -0.84100
O3756       O  0.74510173  0.57019996  0.33659249    -0.79700
O3757       O  0.71381269  0.52985631  0.17913925    -0.91400
O3758       O  0.66551852  0.62997330  0.18910382    -0.77300
O3759       O  0.72055893  0.61391059  0.26355336    -0.86800
O3760       O  0.71999723  0.60614515  0.19504121    -0.86500
O3761       O  0.77306978  0.56547295  0.29154214    -0.73300
O3762       O  0.77253744  0.55853963  0.22973848    -0.85400
Zr3763     Zr  0.80703943  0.67047802  0.27194442     2.26400
Zr3764     Zr  0.76809324  0.62078859  0.31861759     2.06300
Zr3765     Zr  0.76704272  0.60736092  0.18946154     2.10000
Zr3766     Zr  0.71443648  0.66000672  0.22186452     1.78800
O3767       O  0.80470335  0.58028177  0.17358878    -0.94200
O3768       O  0.69576180  0.68933841  0.26052052    -0.42000
O3769       O  0.76120982  0.66122131  0.21645419    -0.78600
O3770       O  0.76006294  0.66983419  0.27774916    -0.97300
O3771       O  0.81481584  0.62268791  0.31271217    -0.90600
O3772       O  0.81364162  0.61665114  0.24461150    -0.93500
C3773       C  0.65376772  0.59976463  0.19093229     1.00300
C3774       C  0.72337642  0.52978765  0.15504388     1.13200
C3775       C  0.72583957  0.54472637  0.31896944     1.04000
O3776       O  0.73679012  0.64126378  0.34628302    -0.95600
O3777       O  0.78759454  0.67814766  0.35186661    -0.91400
O3778       O  0.81912425  0.70017404  0.32965552    -0.84500
C3779       C  0.80807650  0.70077637  0.35241505     1.10600
O3780       O  0.85629192  0.76863726  0.30458902    -0.97600
Zr3781     Zr  0.81925715  0.56883266  0.28447222     1.88900
O3782       O  0.86334097  0.66056393  0.30073781    -0.74300
O3783       O  0.81702486  0.60089937  0.36805317    -0.53500
O3784       O  0.83028697  0.53431864  0.33804929    -0.98200
O3785       O  0.83674960  0.53612436  0.24651894    -0.55400
O3786       O  0.86726546  0.60120238  0.31567966    -0.74800
C3787       C  0.87911091  0.63209289  0.31618239     0.97600
O3788       O  0.80203545  0.73564928  0.26522378    -0.63600
O3789       O  0.72784900  0.63014412  0.13216175    -0.58400
O3790       O  0.81765578  0.69311281  0.22417737    -0.95100
O3791       O  0.78938432  0.66015239  0.17338561    -0.93500
O3792       O  0.67088314  0.69703682  0.18022993    -0.93900
O3793       O  0.71839054  0.70419743  0.18151556    -0.92600
C3794       C  0.80796441  0.68632581  0.19064941     1.16400
H3795       H  0.70229195  0.60141186  0.17211018     0.32400
H3796       H  0.75793948  0.69255688  0.28757936     0.43200
H3797       H  0.83155282  0.61844023  0.24034983     0.36700
H3798       H  0.77491777  0.54487406  0.30648148     0.33200
H3799       H  0.67630609  0.67631100  0.25549003     0.25000
H3800       H  0.82800053  0.62287178  0.38129300     0.30900
H3801       H  0.84749575  0.54777670  0.35749259     0.36900
H3802       H  0.65647700  0.69932916  0.19084184     0.31300
H3803       H  0.70989194  0.61350035  0.12418725     0.30200
H3804       H  0.79951971  0.55424762  0.16991965     0.31900
H3805       H  0.84649713  0.55458668  0.23785434     0.30800
H3806       H  0.73851012  0.71698176  0.19412042     0.34800
H3807       H  0.78634229  0.73918678  0.23996150     0.27600
H3808       H  0.69983743  0.74176909  0.22317332     0.31800
H3809       H  0.87705064  0.77981598  0.31861958     0.34700
H3810       H  0.72042394  0.65272444  0.13830416     0.27300
H3811       H  0.79124197  0.49335650  0.27906602     0.40100
H3812       H  0.71504432  0.63744800  0.32765495     0.30200
H3813       H  0.71030968  0.68257533  0.28546152     0.37800
H3814       H  0.81789060  0.52827518  0.22496664     0.29700
H3815       H  0.81127427  0.58763783  0.38443065     0.29700
H3816       H  0.73594535  0.73523441  0.24292531     0.30000
C3817       C  0.57264305  0.58263492  0.17271238     0.79200
N3818       N  0.55687860  0.60770269  0.14620794    -0.79100
C3819       C  0.57289289  0.62811048  0.13281655     0.81600
N3820       N  0.60402058  0.62330309  0.14638192    -0.79100
C3821       C  0.61963751  0.59884974  0.17269415     0.81700
N3822       N  0.60390361  0.57881872  0.18585695    -0.80800
C3823       C  0.82272795  0.70759938  0.17269204     0.79200
N3824       N  0.80707381  0.73273613  0.14617643    -0.79100
C3825       C  0.82314311  0.50285166  0.13260836     0.81600
N3826       N  0.85422225  0.49767374  0.14606223    -0.79100
C3827       C  0.86974897  0.72327477  0.17244361     0.81700
N3828       N  0.85395779  0.70350758  0.18572995    -0.80800
Zr3829     Zr  0.97608868  0.68469873  0.23638166     2.17500
O3830       O  0.96813096  0.62201591  0.24392432    -0.52400
O3831       O  0.91991531  0.69657066  0.20804618    -0.75600
O3832       O  0.96652234  0.66250261  0.28523167    -0.82400
O3833       O  0.99379674  0.67736571  0.15444969    -0.84100
O3834       O  0.99508618  0.69488866  0.33625133    -0.79700
O3835       O  0.96425784  0.65476418  0.17900964    -0.91400
O3836       O  0.91560308  0.50437308  0.18914634    -0.77300
O3837       O  0.97068566  0.73852320  0.26345162    -0.86800
O3838       O  0.97007279  0.73086990  0.19496790    -0.86500
O3839       O  0.52318832  0.69011664  0.29136826    -0.73300
O3840       O  0.52263884  0.68333161  0.22950859    -0.85400
Zr3841     Zr  0.55702524  0.54531022  0.27176647     2.26400
Zr3842     Zr  0.51820284  0.74547040  0.31842079     2.06300
Zr3843     Zr  0.51707244  0.73229708  0.18932607     2.10000
Zr3844     Zr  0.96442186  0.53462568  0.22175095     1.78800
O3845       O  0.55473145  0.70574797  0.17320361    -0.94200
O3846       O  0.94585453  0.56404012  0.26047195    -0.42000
O3847       O  0.51117718  0.53619568  0.21624553    -0.78600
O3848       O  0.51007057  0.54459045  0.27756680    -0.97300
O3849       O  0.56489101  0.74746287  0.31249161    -0.90600
O3850       O  0.56366483  0.74149150  0.24445616    -0.93500
C3851       C  0.90388370  0.72417405  0.19077252     1.00300
C3852       C  0.97378602  0.65479571  0.15490401     1.13200
C3853       C  0.97607622  0.66915348  0.31876998     1.04000
O3854       O  0.98761905  0.51589154  0.34686854    -0.95600
O3855       O  0.53776901  0.55294882  0.35161096    -0.91400
O3856       O  0.56911356  0.57535161  0.32931666    -0.84500
C3857       C  0.55810668  0.57578986  0.35211776     1.10600
O3858       O  0.60610721  0.64309188  0.30430749    -0.97600
Zr3859     Zr  0.56932946  0.69357396  0.28426682     1.88900
O3860       O  0.61326170  0.53506786  0.30041813    -0.74300
O3861       O  0.56686074  0.72535417  0.36810585    -0.53500
O3862       O  0.58046668  0.65907427  0.33787618    -0.98200
O3863       O  0.58687986  0.66117740  0.24618962    -0.55400
O3864       O  0.61726832  0.72589169  0.31591017    -0.74800
C3865       C  0.62904940  0.75674970  0.31612362     0.97600
O3866       O  0.55212758  0.61047104  0.26464767    -0.63600
O3867       O  0.97777562  0.50538310  0.13224115    -0.58400
O3868       O  0.56770886  0.56795977  0.22414619    -0.95100
O3869       O  0.53934756  0.53515481  0.17329423    -0.93500
O3870       O  0.91999186  0.57050796  0.18001718    -0.93900
O3871       O  0.96812327  0.57869795  0.18106708    -0.92600
C3872       C  0.55795970  0.56126034  0.19061400     1.16400
H3873       H  0.95237969  0.72609282  0.17204341     0.32400
H3874       H  0.50797007  0.56734007  0.28737280     0.43200
H3875       H  0.58156321  0.74331889  0.24017723     0.36700
H3876       H  0.52508990  0.66951522  0.30632452     0.33200
H3877       H  0.92672217  0.55056109  0.25596695     0.25000
H3878       H  0.57778132  0.74730610  0.38144213     0.30900
H3879       H  0.59765409  0.67257256  0.35730700     0.36900
H3880       H  0.90613025  0.57340613  0.19129088     0.31300
H3881       H  0.95966890  0.48898397  0.12435192     0.30200
H3882       H  0.55005296  0.67957773  0.17017661     0.31900
H3883       H  0.59637483  0.67976859  0.23734396     0.30800
H3884       H  0.98813694  0.59170341  0.19362597     0.34800
H3885       H  0.53618953  0.61389770  0.23947175     0.27600
H3886       H  0.94954268  0.61643174  0.22124241     0.31800
H3887       H  0.62691453  0.65414318  0.31836184     0.34700
H3888       H  0.97063012  0.52812107  0.13845848     0.27300
H3889       H  0.54152181  0.61843465  0.27867176     0.40100
H3890       H  0.96578275  0.51294283  0.32817966     0.30200
H3891       H  0.96070459  0.55783406  0.28546625     0.37800
H3892       H  0.56802880  0.65308939  0.22475131     0.29700
H3893       H  0.56083405  0.71214825  0.38428347     0.29700
H3894       H  0.98560535  0.60973583  0.24258698     0.30000
C3895       C  0.71067970  0.52352626  0.33649730     0.79200
N3896       N  0.67935978  0.52745736  0.32259986    -0.79100
C3897       C  0.66310281  0.50732548  0.33496291     0.81600
N3898       N  0.67819457  0.73257123  0.36104250    -0.79100
C3899       C  0.70940649  0.72787915  0.37570262     0.81700
N3900       N  0.72602619  0.74845231  0.36318384    -0.80800
C3901       C  0.95901038  0.58255977  0.08517315     0.79200
N3902       N  0.92776145  0.57866868  0.07211245    -0.79100
C3903       C  0.91203393  0.59869086  0.08529556     0.81600
N3904       N  0.92765748  0.62320384  0.11155137    -0.79100
C3905       C  0.95877540  0.62808607  0.12502903     0.81700
N3906       N  0.97477035  0.60768922  0.11160952    -0.80800
Zr3907     Zr  0.80569533  0.56005335  0.02129403     2.17500
O3908       O  0.81260430  0.74739553  0.01255497    -0.52400
O3909       O  0.86186847  0.57200230  0.04972982    -0.75600
O3910       O  0.81563963  0.53850697  0.47248920    -0.82400
O3911       O  0.78829434  0.55236723  0.10324358    -0.84100
O3912       O  0.78635061  0.57012436  0.42116331    -0.79700
O3913       O  0.81783879  0.52977043  0.07866242    -0.91400
O3914       O  0.86612814  0.62984724  0.06879259    -0.77300
O3915       O  0.81093990  0.61378274  0.49410416    -0.86800
O3916       O  0.81164934  0.60613265  0.06276965    -0.86500
O3917       O  0.75847741  0.56532655  0.46631310    -0.73300
O3918       O  0.75910559  0.55860641  0.02811928    -0.85400
Zr3919     Zr  0.72450854  0.67042023  0.48589934     2.26400
Zr3920     Zr  0.76330342  0.62064519  0.43913407     2.06300
Zr3921     Zr  0.76464230  0.60742056  0.06840225     2.10000
Zr3922     Zr  0.81722085  0.65997653  0.03594624     1.78800
O3923       O  0.72667869  0.58054094  0.08387755    -0.94200
O3924       O  0.83565443  0.68946171  0.49700886    -0.42000
O3925       O  0.77045238  0.66127614  0.04138739    -0.78600
O3926       O  0.77143345  0.66974173  0.47997548    -0.97300
O3927       O  0.71663007  0.62260324  0.44512900    -0.90600
O3928       O  0.71800346  0.61667352  0.01329175    -0.93500
C3929       C  0.87788718  0.59960904  0.06704045     1.00300
C3930       C  0.80827921  0.52974230  0.10276461     1.13200
C3931       C  0.80576912  0.54479932  0.43882936     1.04000
O3932       O  0.79407712  0.64119075  0.41087351    -0.95600
O3933       O  0.74382892  0.67800311  0.40587464    -0.91400
O3934       O  0.71250890  0.70028068  0.42826764    -0.84500
C3935       C  0.72347390  0.70076898  0.40542495     1.10600
O3936       O  0.67517576  0.76870759  0.45364722    -0.97600
Zr3937     Zr  0.71233656  0.56876140  0.47348819     1.88900
O3938       O  0.66822037  0.66032213  0.45719784    -0.74300
O3939       O  0.71434074  0.60061869  0.38984729    -0.53500
O3940       O  0.70143111  0.53405190  0.42006306    -0.98200
O3941       O  0.69494106  0.53598804  0.01134389    -0.55400
O3942       O  0.66429641  0.60103182  0.44200415    -0.74800
C3943       C  0.65244667  0.63188327  0.44165721     0.97600
O3944       O  0.72939055  0.73555921  0.49301379    -0.63600
O3945       O  0.80383289  0.63033860  0.12565626    -0.58400
O3946       O  0.71393830  0.69298432  0.03381149    -0.95100
O3947       O  0.74240219  0.66016023  0.08464120    -0.93500
O3948       O  0.86094410  0.69684153  0.07752138    -0.93900
O3949       O  0.81312166  0.70406544  0.07630212    -0.92600
C3950       C  0.72371407  0.68623825  0.06736730     1.16400
H3951       H  0.82933912  0.60138575  0.08571002     0.32400
H3952       H  0.77351966  0.69246344  0.47011789     0.43200
H3953       H  0.70010279  0.61843534  0.01757819     0.36700
H3954       H  0.75666030  0.54471501  0.45139774     0.33200
H3955       H  0.85519087  0.67606442  0.00206628     0.25000
H3956       H  0.70335835  0.62257885  0.37658308     0.30900
H3957       H  0.68392524  0.54716041  0.40063891     0.36900
H3958       H  0.87519611  0.69929260  0.06671749     0.31300
H3959       H  0.82176948  0.61365717  0.13369576     0.30200
H3960       H  0.73206744  0.55458634  0.08803814     0.31900
H3961       H  0.68500700  0.55452928  0.52001676     0.30800
H3962       H  0.79314954  0.71710441  0.06352592     0.34800
H3963       H  0.74525784  0.73916150  0.01799476     0.27600
H3964       H  0.83147115  0.74153790  0.03484092     0.31800
H3965       H  0.65444220  0.77992670  0.43956928     0.34700
H3966       H  0.81130336  0.65285883  0.11946697     0.27300
H3967       H  0.73989869  0.49348201  0.47894834     0.40100
H3968       H  0.81589941  0.63819976  0.42959353     0.30200
H3969       H  0.82096687  0.68292213  0.47205175     0.37800
H3970       H  0.71381347  0.52845026  0.03304030     0.29700
H3971       H  0.72009964  0.58736680  0.37346967     0.29700
H3972       H  0.79529325  0.73526106  0.51465678     0.30000
C3973       C  0.57073081  0.64808086  0.42153352     0.79200
N3974       N  0.60204767  0.65214512  0.43546281    -0.79100
C3975       C  0.61835327  0.63239577  0.42287648     0.81600
N3976       N  0.60330700  0.60779360  0.39653120    -0.79100
C3977       C  0.57210860  0.60289391  0.38190513     0.81700
N3978       N  0.55546172  0.62308372  0.39468000    -0.80800
C3979       C  0.82091026  0.52361284  0.42127648     0.79200
N3980       N  0.85223148  0.52753817  0.43514428    -0.79100
C3981       C  0.86847883  0.50734672  0.42280867     0.81600
N3982       N  0.85338415  0.73256682  0.39674580    -0.79100
C3983       C  0.82217293  0.72788740  0.38212415     0.81700
N3984       N  0.80557524  0.74851127  0.39463039    -0.80800
C3985       C  0.70896460  0.70745703  0.08537428     0.79200
N3986       N  0.72460335  0.73267901  0.11179867    -0.77900
C3987       C  0.70848658  0.50289073  0.12522799     0.81600
N3988       N  0.67741560  0.49771085  0.11184652    -0.79100
C3989       C  0.66194537  0.72313926  0.08562648     0.81700
N3990       N  0.67774751  0.70330530  0.07240265    -0.80800
Zr3991     Zr  0.55558211  0.68466358  0.02142486     2.17500
O3992       O  0.56335399  0.62194547  0.01380247    -0.52400
O3993       O  0.61178153  0.69640741  0.05009184    -0.75600
O3994       O  0.56513902  0.66251651  0.47265457    -0.82400
O3995       O  0.53789977  0.67735758  0.10336339    -0.84100
O3996       O  0.53644554  0.69482972  0.42162284    -0.79700
O3997       O  0.56743925  0.65473694  0.07881340    -0.91400
O3998       O  0.61603884  0.50438193  0.06877611    -0.77300
O3999       O  0.56098099  0.73852110  0.49439508    -0.86800
O4000       O  0.56161145  0.73084403  0.06281983    -0.86500
O4001       O  0.50840057  0.69014300  0.46646901    -0.73300
O4002       O  0.50902242  0.68334999  0.02828462    -0.85400
Zr4003     Zr  0.97459929  0.54533394  0.48605370     2.26400
Zr4004     Zr  0.51335886  0.74551468  0.43941254     2.06300
Zr4005     Zr  0.51461548  0.73233344  0.06846459     2.10000
Zr4006     Zr  0.56726223  0.53469536  0.03599671     1.78800
O4007       O  0.97684787  0.70600064  0.08454108    -0.94200
O4008       O  0.58598802  0.56401533  0.49745802    -0.42000
O4009       O  0.52050882  0.53625049  0.04149770    -0.78600
O4010       O  0.52156627  0.54447835  0.48029810    -0.97300
O4011       O  0.96668691  0.74747885  0.44533686    -0.90600
O4012       O  0.96794968  0.74148465  0.01334546    -0.93500
C4013       C  0.62781293  0.72407400  0.06721374     1.00300
C4014       C  0.55790361  0.65478472  0.10291535     1.13200
C4015       C  0.55551045  0.66912982  0.43909951     1.04000
O4016       O  0.54397133  0.51623793  0.41105101    -0.95600
O4017       O  0.99374458  0.55292252  0.40613010    -0.91400
O4018       O  0.96237525  0.57527708  0.42841621    -0.84500
C4019       C  0.97337491  0.57572731  0.40560657     1.10600
O4020       O  0.92545192  0.64312247  0.45387852    -0.97600
Zr4021     Zr  0.96226230  0.69358382  0.47356487     1.88900
O4022       O  0.91834711  0.53503777  0.45747100    -0.74300
O4023       O  0.96454698  0.72539577  0.38985506    -0.53500
O4024       O  0.95122754  0.65891480  0.42008255    -0.98200
O4025       O  0.94482675  0.66101254  0.01162160    -0.55400
O4026       O  0.91434024  0.72592179  0.44167330    -0.74800
C4027       C  0.90256152  0.75675053  0.44160765     0.97600
O4028       O  0.97953472  0.61047654  0.49320735    -0.63600
O4029       O  0.55381263  0.50551485  0.12556051    -0.58400
O4030       O  0.96395366  0.56791544  0.03373215    -0.95100
O4031       O  0.99232802  0.53512055  0.08458578    -0.93500
O4032       O  0.61175868  0.57060329  0.07755315    -0.93900
O4033       O  0.56392058  0.57880760  0.07686761    -0.92600
C4034       C  0.97369482  0.56120501  0.06726158     1.16400
H4035       H  0.57931408  0.72607804  0.08573735     0.32400
H4036       H  0.52362302  0.56723363  0.47047053     0.43200
H4037       H  0.95005872  0.74328725  0.01764116     0.36700
H4038       H  0.50649722  0.66953819  0.45151658     0.33200
H4039       H  0.60483319  0.55036139  0.00153245     0.25000
H4040       H  0.95367067  0.74732803  0.37642908     0.30900
H4041       H  0.93391638  0.67224827  0.40063961     0.36900
H4042       H  0.62571704  0.57314956  0.06636637     0.31300
H4043       H  0.57193541  0.48913936  0.13346850     0.30200
H4044       H  0.98148307  0.67982066  0.08756164     0.31900
H4045       H  0.93537890  0.67987670  0.52068395     0.30800
H4046       H  0.54374236  0.59153509  0.06460628     0.34800
H4047       H  0.99545900  0.61390736  0.01825633     0.27600
H4048       H  0.58208950  0.61640551  0.03635075     0.31800
H4049       H  0.90466684  0.65414341  0.43959814     0.34700
H4050       H  0.56094907  0.52826487  0.11934921     0.27300
H4051       H  0.99011869  0.61840844  0.47915009     0.40100
H4052       H  0.56580700  0.51349444  0.42980398     0.30200
H4053       H  0.57077850  0.55860247  0.47239553     0.37800
H4054       H  0.96369501  0.65303054  0.03309957     0.29700
H4055       H  0.97046311  0.71197538  0.37369266     0.29700
H4056       H  0.54613090  0.60967495  0.51570326     0.30000
C4057       C  0.96081377  0.64811781  0.83635666     0.79200
N4058       N  0.97604962  0.62304139  0.86313764    -0.79100
C4059       C  0.95938869  0.60286960  0.87590496     0.81600
N4060       N  0.92820339  0.60785702  0.86132797    -0.79100
C4061       C  0.91319588  0.63254105  0.83505117     0.81700
N4062       N  0.92951663  0.65228051  0.82248590    -0.80800
Zr4063     Zr  0.72595134  0.55998057  0.73654022     2.17500
O4064       O  0.71893733  0.74731957  0.74523270    -0.52400
O4065       O  0.66976694  0.57187549  0.70794235    -0.75600
O4066       O  0.71598566  0.53848329  0.78534286    -0.82400
O4067       O  0.74343984  0.55231418  0.65462885    -0.84100
O4068       O  0.74518908  0.57018299  0.83664188    -0.79700
O4069       O  0.71388127  0.52972913  0.67918989    -0.91400
O4070       O  0.66549446  0.62996022  0.68953496    -0.77300
O4071       O  0.72064776  0.61378529  0.76369258    -0.86800
O4072       O  0.71999096  0.60613676  0.69512400    -0.86500
O4073       O  0.77312271  0.56537756  0.79155727    -0.73300
O4074       O  0.77254993  0.55850992  0.72970809    -0.85400
Zr4075     Zr  0.80706494  0.67046690  0.77192634     2.26400
Zr4076     Zr  0.76824367  0.62071461  0.81868988     2.06300
Zr4077     Zr  0.76700705  0.60738854  0.68946341     2.10000
Zr4078     Zr  0.71445447  0.65993913  0.72203926     1.78800
O4079       O  0.80481298  0.58066888  0.67363262    -0.94200
O4080       O  0.69585149  0.68933271  0.76074127    -0.42000
O4081       O  0.76117748  0.66120390  0.71651337    -0.78600
O4082       O  0.76014254  0.66979414  0.77784035    -0.97300
O4083       O  0.81491616  0.62265291  0.81270116    -0.90600
O4084       O  0.81362994  0.61663088  0.74458594    -0.93500
C4085       C  0.65375286  0.59961111  0.69094890     1.00300
C4086       C  0.72344021  0.52970445  0.65509034     1.13200
C4087       C  0.72580582  0.54482406  0.81898735     1.04000
O4088       O  0.73727573  0.64137034  0.84667185    -0.95600
O4089       O  0.78767777  0.67811359  0.85187751    -0.91400
O4090       O  0.81905408  0.70033334  0.82953925    -0.84500
C4091       C  0.80806812  0.70084138  0.85235932     1.10600
O4092       O  0.85634404  0.76854009  0.80462000    -0.97600
Zr4093     Zr  0.81928326  0.56878417  0.78444213     1.88900
O4094       O  0.86335555  0.66052367  0.80080631    -0.74300
O4095       O  0.81717273  0.60101858  0.86825378    -0.53500
O4096       O  0.83023808  0.53448594  0.83811507    -0.98200
O4097       O  0.83683553  0.53605492  0.74655286    -0.55400
O4098       O  0.86728364  0.60113768  0.81567135    -0.74800
C4099       C  0.87912046  0.63204229  0.81622109     0.97600
O4100       O  0.80201454  0.73559753  0.76478373    -0.63600
O4101       O  0.72783893  0.63016254  0.63214220    -0.58400
O4102       O  0.81776635  0.69300752  0.72419092    -0.95100
O4103       O  0.78929512  0.66020866  0.67334982    -0.93500
O4104       O  0.67074264  0.69679049  0.68044924    -0.93900
O4105       O  0.71813759  0.70403912  0.68144050    -0.92600
C4106       C  0.80797663  0.68629571  0.69063262     1.16400
H4107       H  0.70225900  0.60144906  0.67220161     0.32400
H4108       H  0.75802715  0.69252489  0.78766155     0.43200
H4109       H  0.83153189  0.61841333  0.74030412     0.36700
H4110       H  0.77493938  0.54477255  0.80647945     0.33200
H4111       H  0.67653758  0.67611849  0.75596872     0.25000
H4112       H  0.82812105  0.62307040  0.88133895     0.30900
H4113       H  0.84750484  0.54791344  0.85751828     0.36900
H4114       H  0.65647736  0.69923171  0.69123724     0.31300
H4115       H  0.70984373  0.61358415  0.62422607     0.30200
H4116       H  0.79976482  0.55460035  0.67003438     0.31900
H4117       H  0.84665566  0.55450727  0.73796894     0.30800
H4118       H  0.73830746  0.71675374  0.69385751     0.34800
H4119       H  0.78617111  0.73898422  0.73956149     0.27600
H4120       H  0.69981011  0.74166467  0.72315378     0.31800
H4121       H  0.87712389  0.77979106  0.81827203     0.34700
H4122       H  0.72048395  0.65281097  0.63825693     0.27300
H4123       H  0.79126777  0.49344318  0.77877811     0.40100
H4124       H  0.71548379  0.63800689  0.82799930     0.30200
H4125       H  0.71055274  0.68284550  0.78570763     0.37800
H4126       H  0.81798618  0.52828934  0.72494496     0.29700
H4127       H  0.81140766  0.58796116  0.88472373     0.29700
H4128       H  0.73591618  0.73507486  0.74281180     0.30000
C4129       C  0.57260436  0.58250331  0.67260235     0.79200
N4130       N  0.55687032  0.60763607  0.64615794    -0.79100
C4131       C  0.57290941  0.62808575  0.63283096     0.81600
N4132       N  0.60403696  0.62324282  0.64639409    -0.79100
C4133       C  0.61962209  0.59870159  0.67263352     0.81700
N4134       N  0.60386084  0.57864768  0.68574196    -0.80800
C4135       C  0.82272127  0.70755045  0.67263938     0.79200
N4136       N  0.80706461  0.73270972  0.64614871    -0.79100
C4137       C  0.82320311  0.50288803  0.63267455     0.81600
N4138       N  0.85427609  0.49770636  0.64608313    -0.79100
C4139       C  0.86971880  0.72315997  0.67230347     0.81700
N4140       N  0.85393888  0.70341083  0.68561475    -0.80800
Zr4141     Zr  0.97606177  0.68459721  0.73641699     2.17500
O4142       O  0.96826775  0.62187746  0.74409675    -0.52400
O4143       O  0.91988174  0.69648271  0.70801072    -0.75600
O4144       O  0.96647939  0.66242957  0.78525377    -0.82400
O4145       O  0.99370070  0.67732011  0.65445465    -0.84100
O4146       O  0.99501848  0.69490890  0.83621752    -0.79700
O4147       O  0.96421430  0.65464857  0.67905906    -0.91400
O4148       O  0.91567193  0.50423541  0.68877671    -0.77300
O4149       O  0.97059550  0.73844229  0.76342362    -0.86800
O4150       O  0.97005906  0.73072660  0.69497148    -0.86500
O4151       O  0.52322454  0.69009229  0.79140419    -0.73300
O4152       O  0.52264149  0.68334235  0.72949901    -0.85400
Zr4153     Zr  0.55695112  0.54528911  0.77167187     2.26400
Zr4154     Zr  0.51821957  0.74547530  0.81841188     2.06300
Zr4155     Zr  0.51705813  0.73233777  0.68932929     2.10000
Zr4156     Zr  0.96437795  0.53458707  0.72172208     1.78800
O4157       O  0.55467157  0.70581156  0.67312870    -0.94200
O4158       O  0.94560763  0.56375342  0.76037437    -0.42000
O4159       O  0.51104988  0.53619767  0.71619507    -0.78600
O4160       O  0.51001455  0.54452521  0.77751553    -0.97300
O4161       O  0.56488799  0.74744774  0.81244665    -0.90600
O4162       O  0.56367431  0.74148947  0.74443219    -0.93500
C4163       C  0.90385274  0.72404480  0.69062783     1.00300
C4164       C  0.97372084  0.65472408  0.65493367     1.13200
C4165       C  0.97603586  0.66913320  0.81878160     1.04000
O4166       O  0.98753909  0.51631308  0.84671892    -0.95600
O4167       O  0.53785616  0.55287584  0.85162844    -0.91400
O4168       O  0.56911685  0.57532674  0.82923852    -0.84500
C4169       C  0.55816488  0.57573641  0.85209024     1.10600
O4170       O  0.60595993  0.64290605  0.80410332    -0.97600
Zr4171     Zr  0.56934139  0.69355357  0.78423645     1.88900
O4172       O  0.61320599  0.53512527  0.80042653    -0.74300
O4173       O  0.56689492  0.72528015  0.86802143    -0.53500
O4174       O  0.58054726  0.65900599  0.83783363    -0.98200
O4175       O  0.58686703  0.66128335  0.74606483    -0.55400
O4176       O  0.61726467  0.72589704  0.81595454    -0.74800
C4177       C  0.62903131  0.75676222  0.81614225     0.97600
O4178       O  0.55192295  0.61042670  0.76442911    -0.63600
O4179       O  0.97795625  0.50526845  0.63220005    -0.58400
O4180       O  0.56769172  0.56781186  0.72404471    -0.95100
O4181       O  0.53921276  0.53511272  0.67315018    -0.93500
O4182       O  0.91989620  0.57057415  0.68026889    -0.93900
O4183       O  0.96757711  0.57876689  0.68084785    -0.92600
C4184       C  0.55790184  0.56115025  0.69049662     1.16400
H4185       H  0.95238939  0.72592067  0.67203707     0.32400
H4186       H  0.50792571  0.56727714  0.78732825     0.43200
H4187       H  0.58156652  0.74333185  0.74014298     0.36700
H4188       H  0.52513811  0.66951023  0.80638975     0.33200
H4189       H  0.92678823  0.54980064  0.75624464     0.25000
H4190       H  0.57785883  0.74720826  0.88136919     0.30900
H4191       H  0.59770834  0.67253675  0.85726237     0.36900
H4192       H  0.90589721  0.57297762  0.69141701     0.31300
H4193       H  0.95981441  0.48893076  0.62435196     0.30200
H4194       H  0.55008973  0.67961480  0.67028623     0.31900
H4195       H  0.59609389  0.67995228  0.73697125     0.30800
H4196       H  0.98779868  0.59140830  0.69307266     0.34800
H4197       H  0.53601208  0.61378728  0.73922868     0.27600
H4198       H  0.94940605  0.61638310  0.72165990     0.31800
H4199       H  0.62679729  0.65385648  0.81824363     0.34700
H4200       H  0.97085263  0.52808166  0.63834098     0.27300
H4201       H  0.54125665  0.61835675  0.77839811     0.40100
H4202       H  0.96570774  0.51320462  0.82807050     0.30200
H4203       H  0.96070224  0.55806610  0.78541227     0.37800
H4204       H  0.56801745  0.65291850  0.72477695     0.29700
H4205       H  0.56089814  0.71205882  0.88421527     0.29700
H4206       H  0.98549001  0.60958816  0.74221272     0.30000
C4207       C  0.71064706  0.52366192  0.83653799     0.79200
N4208       N  0.67932653  0.52759106  0.82265005    -0.79100
C4209       C  0.66307132  0.50742483  0.83499195     0.81600
N4210       N  0.67817138  0.73262239  0.86106940    -0.79100
C4211       C  0.70937685  0.72790888  0.87569468     0.81700
N4212       N  0.72598057  0.74844744  0.86313099    -0.80800
C4213       C  0.95904151  0.58254017  0.58520844     0.79200
N4214       N  0.92778962  0.57864338  0.57209552    -0.79100
C4215       C  0.91202876  0.59864022  0.58524979     0.81600
N4216       N  0.92761693  0.62314867  0.61152228    -0.79100
C4217       C  0.95873939  0.62802731  0.62505679     0.81700
N4218       N  0.97477292  0.60764400  0.61167875    -0.80800
Zr4219     Zr  0.80568611  0.55998009  0.52130053     2.17500
O4220       O  0.81248648  0.74733358  0.51254337    -0.52400
O4221       O  0.86187596  0.57184651  0.54988995    -0.75600
O4222       O  0.81563088  0.53854058  0.97248767    -0.82400
O4223       O  0.78838490  0.55243780  0.60334937    -0.84100
O4224       O  0.78638717  0.57020008  0.92117461    -0.79700
O4225       O  0.81781534  0.52973097  0.57867339    -0.91400
O4226       O  0.86614301  0.62992512  0.56833140    -0.77300
O4227       O  0.81100015  0.61389506  0.99419518    -0.86800
O4228       O  0.81166764  0.60614376  0.56270701    -0.86500
O4229       O  0.75851566  0.56544953  0.96628265    -0.73300
O4230       O  0.75912396  0.55855248  0.52818027    -0.85400
Zr4231     Zr  0.72454414  0.67050510  0.98595311     2.26400
Zr4232     Zr  0.76340897  0.62078912  0.93917840     2.06300
Zr4233     Zr  0.76468782  0.60742386  0.56841331     2.10000
Zr4234     Zr  0.81717094  0.65994924  0.53576909     1.78800
O4235       O  0.72681350  0.58054067  0.58403920    -0.94200
O4236       O  0.83595676  0.68940520  0.99739067    -0.42000
O4237       O  0.77044406  0.66122336  0.54129139    -0.78600
O4238       O  0.77150820  0.66978679  0.98010355    -0.97300
O4239       O  0.71672375  0.62274060  0.94515233    -0.90600
O4240       O  0.71803054  0.61662331  0.51332454    -0.93500
C4241       C  0.87789055  0.59957127  0.56691553     1.00300
C4242       C  0.80831802  0.52976453  0.60282777     1.13200
C4243       C  0.80578042  0.54484664  0.93883429     1.04000
O4244       O  0.79443221  0.64178716  0.91136483    -0.95600
O4245       O  0.74387693  0.67811839  0.90591091    -0.91400
O4246       O  0.71247370  0.70026548  0.92824505    -0.84500
C4247       C  0.72346179  0.70080859  0.90542310     1.10600
O4248       O  0.67516208  0.76875216  0.95339099    -0.97600
Zr4249     Zr  0.71235399  0.56886612  0.97340544     1.88900
O4250       O  0.66824176  0.66040729  0.95722180    -0.74300
O4251       O  0.71444148  0.60095778  0.88974371    -0.53500
O4252       O  0.70138530  0.53436786  0.91984724    -0.98200
O4253       O  0.69498843  0.53611239  0.51160283    -0.55400
O4254       O  0.66433769  0.60115472  0.94191454    -0.74800
C4255       C  0.65247673  0.63198636  0.94159883     0.97600
O4256       O  0.72943722  0.73566446  0.99278288    -0.63600
O4257       O  0.80382404  0.63053555  0.62559320    -0.58400
O4258       O  0.71379625  0.69285584  0.53365566    -0.95100
O4259       O  0.74241852  0.66020176  0.58455690    -0.93500
O4260       O  0.86098662  0.69672424  0.57729221    -0.93900
O4261       O  0.81326040  0.70396953  0.57630679    -0.92600
C4262       C  0.72364980  0.68619865  0.56723404     1.16400
H4263       H  0.82939487  0.60145568  0.58563298     0.32400
H4264       H  0.77360584  0.69249551  0.97023577     0.43200
H4265       H  0.70014279  0.61840183  0.51763216     0.36700
H4266       H  0.75668110  0.54484534  0.95135335     0.33200
H4267       H  0.85500561  0.67633335  0.50178108     0.25000
H4268       H  0.70350693  0.62294762  0.87649939     0.30900
H4269       H  0.68391578  0.54757008  0.90046884     0.36900
H4270       H  0.87518142  0.69919527  0.56641316     0.31300
H4271       H  0.82184813  0.61399188  0.63360392     0.30200
H4272       H  0.73226266  0.55460791  0.58830243     0.31900
H4273       H  0.68490881  0.55433669  0.01976174     0.30800
H4274       H  0.79320792  0.71689172  0.56372905     0.34800
H4275       H  0.74528298  0.73899507  0.51820566     0.27600
H4276       H  0.83142703  0.74151196  0.53476594     0.31800
H4277       H  0.65443480  0.78002392  0.93942527     0.34700
H4278       H  0.81114314  0.65313515  0.61934824     0.27300
H4279       H  0.74004774  0.49348130  0.97879462     0.40100
H4280       H  0.81622115  0.63829538  0.92999793     0.30200
H4281       H  0.82120047  0.68309792  0.97239247     0.37800
H4282       H  0.71387896  0.52858281  0.53328063     0.29700
H4283       H  0.72018356  0.58767495  0.87336938     0.29700
H4284       H  0.79534621  0.73530596  0.01451337     0.30000
C4285       C  0.57074033  0.64811281  0.92140983     0.79200
N4286       N  0.60204953  0.65223105  0.93532020    -0.79100
C4287       C  0.61838044  0.63246966  0.92277818     0.81600
N4288       N  0.60336136  0.60780840  0.89647599    -0.79100
C4289       C  0.57216533  0.60286616  0.88185746     0.81700
N4290       N  0.55550041  0.62306157  0.89460315    -0.80800
C4291       C  0.82094009  0.52365458  0.92130347     0.79200
N4292       N  0.85227656  0.52748450  0.93528328    -0.79100
C4293       C  0.86853283  0.50730718  0.92295283     0.81600
N4294       N  0.85338443  0.73252847  0.89678742    -0.79100
C4295       C  0.82216376  0.72791030  0.88210448     0.81700
N4296       N  0.80556616  0.74851028  0.89462965    -0.80800
C4297       C  0.70891913  0.70744136  0.58522792     0.79200
N4298       N  0.72459585  0.73260722  0.61169389    -0.77900
C4299       C  0.70855110  0.50282755  0.62524564     0.81600
N4300       N  0.67747095  0.49766971  0.61181854    -0.79100
C4301       C  0.66192408  0.72318136  0.58550087     0.81700
N4302       N  0.67769453  0.70334884  0.57223629    -0.80800
Zr4303     Zr  0.55557005  0.68470228  0.52148235     2.17500
O4304       O  0.56343875  0.62196114  0.51400111    -0.52400
O4305       O  0.61174313  0.69656299  0.54980552    -0.75600
O4306       O  0.56516248  0.66257626  0.97254442    -0.82400
O4307       O  0.53799013  0.67743861  0.60347104    -0.84100
O4308       O  0.53639939  0.69480568  0.92147512    -0.79700
O4309       O  0.56742696  0.65472198  0.57883076    -0.91400
O4310       O  0.61608618  0.50429218  0.56888991    -0.77300
O4311       O  0.56096633  0.73849353  0.99433256    -0.86800
O4312       O  0.56166925  0.73086371  0.56292771    -0.86500
O4313       O  0.50842041  0.69007677  0.96639056    -0.73300
O4314       O  0.50900158  0.68345581  0.52833336    -0.85400
Zr4315     Zr  0.97461591  0.54528734  0.98608477     2.26400
Zr4316     Zr  0.51334261  0.74546289  0.93932869     2.06300
Zr4317     Zr  0.51467307  0.73241942  0.56856198     2.10000
Zr4318     Zr  0.56732577  0.53460646  0.53610645     1.78800
O4319       O  0.97684841  0.70576964  0.58440919    -0.94200
O4320       O  0.58587093  0.56407336  0.99728097    -0.42000
O4321       O  0.52057976  0.53622475  0.54161734    -0.78600
O4322       O  0.52152994  0.54458417  0.98017212    -0.97300
O4323       O  0.96670983  0.74744454  0.94531872    -0.90600
O4324       O  0.96797755  0.74151247  0.51338558    -0.93500
C4325       C  0.62779073  0.72411919  0.56716873     1.00300
C4326       C  0.55793477  0.65480447  0.60296618     1.13200
C4327       C  0.55550563  0.66914929  0.93897194     1.04000
O4328       O  0.54406653  0.51605787  0.91099350    -0.95600
O4329       O  0.99372607  0.55290507  0.90615503    -0.91400
O4330       O  0.96239504  0.57527961  0.92848012    -0.84500
C4331       C  0.97338104  0.57572916  0.90566074     1.10600
O4332       O  0.92550703  0.64307586  0.95347302    -0.97600
Zr4333     Zr  0.96230574  0.69354885  0.97354634     1.88900
O4334       O  0.91838418  0.53501106  0.95751542    -0.74300
O4335       O  0.96462611  0.72549701  0.88975618    -0.53500
O4336       O  0.95126696  0.65921254  0.91987508    -0.98200
O4337       O  0.94474910  0.66125344  0.51171827    -0.55400
O4338       O  0.91434226  0.72581759  0.94182550    -0.74800
C4339       C  0.90255469  0.75664617  0.94171688     0.97600
O4340       O  0.97951275  0.61045176  0.99309032    -0.63600
O4341       O  0.55407387  0.50547297  0.62563965    -0.58400
O4342       O  0.96399559  0.56794918  0.53376256    -0.95100
O4343       O  0.99239494  0.53515772  0.58461051    -0.93500
O4344       O  0.61183660  0.57055349  0.57758717    -0.93900
O4345       O  0.56396510  0.57850820  0.57713705    -0.92600
C4346       C  0.97375048  0.56123328  0.56729544     1.16400
H4347       H  0.57935317  0.72605691  0.58585159     0.32400
H4348       H  0.52361002  0.56733077  0.97034601     0.43200
H4349       H  0.95009146  0.74334861  0.51768769     0.36700
H4350       H  0.50652976  0.66947467  0.95143851     0.33200
H4351       H  0.60468658  0.54995207  0.50132997     0.25000
H4352       H  0.95370680  0.74746676  0.87645697     0.30900
H4353       H  0.93392038  0.67257814  0.90050556     0.36900
H4354       H  0.62578758  0.57306493  0.56638670     0.31300
H4355       H  0.57212528  0.48898081  0.63358147     0.30200
H4356       H  0.98168552  0.67964343  0.58769617     0.31900
H4357       H  0.93523847  0.67954720  0.02040890     0.30800
H4358       H  0.54389950  0.59145319  0.56481342     0.34800
H4359       H  0.99551133  0.61387237  0.51837259     0.27600
H4360       H  0.58220480  0.61647726  0.53654089     0.31800
H4361       H  0.90470334  0.65413136  0.93940575     0.34700
H4362       H  0.56131130  0.52812053  0.61938615     0.27300
H4363       H  0.99011402  0.61837414  0.97904810     0.40100
H4364       H  0.56588865  0.51307597  0.92971104     0.30200
H4365       H  0.57086770  0.55818272  0.97225894     0.37800
H4366       H  0.96360643  0.65303545  0.53308053     0.29700
H4367       H  0.97056312  0.71227231  0.87351203     0.29700
H4368       H  0.54600477  0.60970304  0.01545215     0.30000
C4369       C  0.96088780  0.89820586  0.33638166     0.79200
N4370       N  0.97613061  0.87313749  0.36317149    -0.79100
C4371       C  0.95946532  0.85292559  0.37590569     0.81600
N4372       N  0.92826966  0.85786338  0.36127894    -0.79100
C4373       C  0.91325530  0.88254672  0.33499847     0.81700
N4374       N  0.92958348  0.90233047  0.32247568    -0.80800
Zr4375     Zr  0.72595576  0.81009402  0.23655593     2.17500
O4376       O  0.71896802  0.99742341  0.24519274    -0.52400
O4377       O  0.66979458  0.82212128  0.20816214    -0.75600
O4378       O  0.71609444  0.78849810  0.28540231    -0.82400
O4379       O  0.74346292  0.80232415  0.15468197    -0.84100
O4380       O  0.74521281  0.82024334  0.33669498    -0.79700
O4381       O  0.71381106  0.77986183  0.17917882    -0.91400
O4382       O  0.66552127  0.88004347  0.18930484    -0.77300
O4383       O  0.72061042  0.86393060  0.26360827    -0.86800
O4384       O  0.72002272  0.85619076  0.19509617    -0.86500
O4385       O  0.77310844  0.81550476  0.29156931    -0.73300
O4386       O  0.77256674  0.80859602  0.22975996    -0.85400
Zr4387     Zr  0.80709409  0.92051316  0.27194490     2.26400
Zr4388     Zr  0.76815917  0.87082479  0.31865496     2.06300
Zr4389     Zr  0.76704478  0.85741493  0.18946796     2.10000
Zr4390     Zr  0.71447644  0.91004250  0.22193133     1.78800
O4391       O  0.80479784  0.83041164  0.17370748    -0.94200
O4392       O  0.69595897  0.93944431  0.26070129    -0.42000
O4393       O  0.76123143  0.91127333  0.21647480    -0.78600
O4394       O  0.76013371  0.91986258  0.27777860    -0.97300
O4395       O  0.81488076  0.87274343  0.31274047    -0.90600
O4396       O  0.81365940  0.86667819  0.24460840    -0.93500
C4397       C  0.65377442  0.84977644  0.19097198     1.00300
C4398       C  0.72341219  0.77977717  0.15511525     1.13200
C4399       C  0.72588439  0.79483672  0.31904109     1.04000
O4400       O  0.73688048  0.89134759  0.34633053    -0.95600
O4401       O  0.78758399  0.92820921  0.35183507    -0.91400
O4402       O  0.81913781  0.95021727  0.32964685    -0.84500
C4403       C  0.80807836  0.95082068  0.35239726     1.10600
O4404       O  0.85650990  0.01880446  0.30447737    -0.97600
Zr4405     Zr  0.81929007  0.81887673  0.28449948     1.88900
O4406       O  0.86339745  0.91052831  0.30071395    -0.74300
O4407       O  0.81710303  0.85105211  0.36814797    -0.53500
O4408       O  0.83028756  0.78455081  0.33817029    -0.98200
O4409       O  0.83684663  0.78607199  0.24666135    -0.55400
O4410       O  0.86732448  0.85117865  0.31569684    -0.74800
C4411       C  0.87916881  0.88205997  0.31617340     0.97600
O4412       O  0.80212082  0.98567431  0.26505581    -0.63600
O4413       O  0.72775614  0.88002708  0.13212133    -0.58400
O4414       O  0.81771061  0.94314411  0.22418086    -0.95100
O4415       O  0.78934060  0.91025624  0.17336688    -0.93500
O4416       O  0.67079853  0.94688950  0.18025840    -0.93900
O4417       O  0.71830254  0.95424650  0.18150558    -0.92600
C4418       C  0.80796835  0.93639451  0.19063803     1.16400
H4419       H  0.70229900  0.85147538  0.17217470     0.32400
H4420       H  0.75802080  0.94259425  0.28759911     0.43200
H4421       H  0.83156541  0.86845317  0.24033468     0.36700
H4422       H  0.77494583  0.79490290  0.30650182     0.33200
H4423       H  0.67645837  0.92651562  0.25565807     0.25000
H4424       H  0.82804581  0.87305886  0.38134150     0.30900
H4425       H  0.84760449  0.79793620  0.35755491     0.36900
H4426       H  0.65656644  0.94946063  0.19107651     0.31300
H4427       H  0.70988297  0.86325589  0.12415666     0.30200
H4428       H  0.79965044  0.80436785  0.17005959     0.31900
H4429       H  0.84664402  0.80450537  0.23802930     0.30800
H4430       H  0.73845329  0.96698065  0.19403585     0.34800
H4431       H  0.78629829  0.98915207  0.23983933     0.27600
H4432       H  0.69996585  0.99168429  0.22300705     0.31800
H4433       H  0.87722376  0.03006909  0.31856333     0.34700
H4434       H  0.72020535  0.90253674  0.13822520     0.27300
H4435       H  0.79111841  0.74334504  0.27898817     0.40100
H4436       H  0.71513266  0.88751659  0.32771513     0.30200
H4437       H  0.71049156  0.93259626  0.28562070     0.37800
H4438       H  0.81799828  0.77825254  0.22508070     0.29700
H4439       H  0.81135457  0.83783694  0.38454926     0.29700
H4440       H  0.73608426  0.98525654  0.24299739     0.30000
C4441       C  0.57263058  0.83253851  0.17264788     0.79200
N4442       N  0.55686390  0.85763949  0.14618241    -0.79100
C4443       C  0.57287529  0.87811925  0.13284179     0.81600
N4444       N  0.60401433  0.87335213  0.14643006    -0.79100
C4445       C  0.61963621  0.84885359  0.17270173     0.81700
N4446       N  0.60389596  0.82874978  0.18580523    -0.80800
C4447       C  0.82273009  0.95766594  0.17267317     0.79200
N4448       N  0.80707642  0.98279041  0.14614703    -0.79100
C4449       C  0.82314209  0.75289452  0.13264140     0.81600
N4450       N  0.85422423  0.74774761  0.14609841    -0.79100
C4451       C  0.86975493  0.97336521  0.17244656     0.81700
N4452       N  0.85396235  0.95359418  0.18572706    -0.80800
Zr4453     Zr  0.97606859  0.93477288  0.23640010     2.17500
O4454       O  0.96812525  0.87209055  0.24394083    -0.52400
O4455       O  0.91990321  0.94663618  0.20799848    -0.75600
O4456       O  0.96653261  0.91263230  0.28529142    -0.82400
O4457       O  0.99372331  0.92744659  0.15441711    -0.84100
O4458       O  0.99512648  0.94499211  0.33632157    -0.79700
O4459       O  0.96425273  0.90479526  0.17904173    -0.91400
O4460       O  0.91561379  0.75443968  0.18909366    -0.77300
O4461       O  0.97068057  0.98860782  0.26347127    -0.86800
O4462       O  0.97004680  0.98094305  0.19499302    -0.86500
O4463       O  0.52320748  0.94018727  0.29143666    -0.73300
O4464       O  0.52266593  0.93334934  0.22955595    -0.85400
Zr4465     Zr  0.55699279  0.79530801  0.27172474     2.26400
Zr4466     Zr  0.51820262  0.99557505  0.31843079     2.06300
Zr4467     Zr  0.51707488  0.98231350  0.18934952     2.10000
Zr4468     Zr  0.96441558  0.78469902  0.22175273     1.78800
O4469       O  0.55461890  0.95572801  0.17306359    -0.94200
O4470       O  0.94588807  0.81413526  0.26050313    -0.42000
O4471       O  0.51114398  0.78616547  0.21621307    -0.78600
O4472       O  0.51003447  0.79457658  0.27753676    -0.97300
O4473       O  0.56488490  0.99754139  0.31249784    -0.90600
O4474       O  0.56366654  0.99152607  0.24447151    -0.93500
C4475       C  0.90388226  0.97427023  0.19079110     1.00300
C4476       C  0.97374865  0.90484930  0.15490520     1.13200
C4477       C  0.97611245  0.91926340  0.31883893     1.04000
O4478       O  0.98756324  0.76599510  0.34686544    -0.95600
O4479       O  0.53773172  0.80294165  0.35158942    -0.91400
O4480       O  0.56904589  0.82536039  0.32925803    -0.84500
C4481       C  0.55805882  0.82578893  0.35207735     1.10600
O4482       O  0.60610796  0.89313772  0.30435840    -0.97600
Zr4483     Zr  0.56933987  0.94363237  0.28431677     1.88900
O4484       O  0.61324868  0.78511602  0.30041707    -0.74300
O4485       O  0.56694848  0.97565310  0.36811638    -0.53500
O4486       O  0.58043500  0.90906556  0.33787338    -0.98200
O4487       O  0.58700629  0.91141823  0.24625151    -0.55400
O4488       O  0.61724063  0.97595618  0.31612083    -0.74800
C4489       C  0.62901506  0.00677222  0.31616049     0.97600
O4490       O  0.55214414  0.86047941  0.26458281    -0.63600
O4491       O  0.97786111  0.75552645  0.13228478    -0.58400
O4492       O  0.56765486  0.81789066  0.22405875    -0.95100
O4493       O  0.53935179  0.78503151  0.17322443    -0.93500
O4494       O  0.91996339  0.82058800  0.18006990    -0.93900
O4495       O  0.96796722  0.82885566  0.18104833    -0.92600
C4496       C  0.55794455  0.81115393  0.19053908     1.16400
H4497       H  0.95234511  0.97617570  0.17207367     0.32400
H4498       H  0.50792203  0.81732208  0.28734104     0.43200
H4499       H  0.58156183  0.99336251  0.24018799     0.36700
H4500       H  0.52511772  0.91960979  0.30642362     0.33200
H4501       H  0.92661007  0.80087382  0.25579916     0.25000
H4502       H  0.57781300  0.99764440  0.38142153     0.30900
H4503       H  0.59752960  0.92263269  0.35734437     0.36900
H4504       H  0.90612259  0.82349172  0.19137007     0.31300
H4505       H  0.95970418  0.73920511  0.12438429     0.30200
H4506       H  0.55003460  0.92953178  0.17022911     0.31900
H4507       H  0.59636263  0.93008766  0.23731527     0.30800
H4508       H  0.98809554  0.84165936  0.19346495     0.34800
H4509       H  0.53623466  0.86392165  0.23939729     0.27600
H4510       H  0.94944804  0.86655895  0.22132768     0.31800
H4511       H  0.62691291  0.90417829  0.31846179     0.34700
H4512       H  0.97078749  0.77830992  0.13851492     0.27300
H4513       H  0.54151726  0.86847019  0.27857658     0.40100
H4514       H  0.96573072  0.76297191  0.32819194     0.30200
H4515       H  0.96061662  0.80767787  0.28546958     0.37800
H4516       H  0.56817998  0.90318109  0.22486624     0.29700
H4517       H  0.56099438  0.96240425  0.38433386     0.29700
H4518       H  0.98551612  0.85979575  0.24242951     0.30000
C4519       C  0.71071086  0.77363596  0.33654995     0.79200
N4520       N  0.67938091  0.77752467  0.32259811    -0.79100
C4521       C  0.66311040  0.75736601  0.33492420     0.81600
N4522       N  0.67816878  0.98265019  0.36108187    -0.79100
C4523       C  0.70937776  0.97796807  0.37573106     0.81700
N4524       N  0.72598171  0.99849799  0.36315974    -0.80800
C4525       C  0.95897108  0.83264655  0.08513030     0.79200
N4526       N  0.92772051  0.82877347  0.07206310    -0.79100
C4527       C  0.91199616  0.84879162  0.08525417     0.81600
N4528       N  0.92762042  0.87328424  0.11152842    -0.79100
C4529       C  0.95873990  0.87814762  0.12502101     0.81700
N4530       N  0.97473510  0.85775549  0.11159248    -0.80800
Zr4531     Zr  0.80570319  0.81005753  0.02130016     2.17500
O4532       O  0.81253838  0.99736219  0.01260416    -0.52400
O4533       O  0.86185292  0.82209310  0.04966916    -0.75600
O4534       O  0.81560618  0.78862060  0.47239728    -0.82400
O4535       O  0.78828065  0.80238856  0.10325300    -0.84100
O4536       O  0.78633715  0.82026506  0.42108450    -0.79700
O4537       O  0.81781351  0.77977102  0.07866451    -0.91400
O4538       O  0.86607764  0.87989298  0.06883822    -0.77300
O4539       O  0.81092973  0.86385291  0.49408985    -0.86800
O4540       O  0.81159883  0.85613737  0.06275371    -0.86500
O4541       O  0.75846783  0.81540366  0.46624533    -0.73300
O4542       O  0.75909218  0.80856078  0.02807299    -0.85400
Zr4543     Zr  0.72447949  0.92045882  0.48590663     2.26400
Zr4544     Zr  0.76329935  0.87075125  0.43911439     2.06300
Zr4545     Zr  0.76456342  0.85737591  0.06833066     2.10000
Zr4546     Zr  0.81717152  0.91000644  0.03595613     1.78800
O4547       O  0.72665004  0.83036791  0.08382454    -0.94200
O4548       O  0.83570090  0.93940019  0.49707195    -0.42000
O4549       O  0.77037868  0.91125669  0.04134569    -0.78600
O4550       O  0.77141890  0.91978375  0.48001224    -0.97300
O4551       O  0.71661709  0.87269382  0.44509028    -0.90600
O4552       O  0.71795426  0.86660802  0.01319520    -0.93500
C4553       C  0.87785344  0.84969013  0.06702048     1.00300
C4554       C  0.80826275  0.77975992  0.10277656     1.13200
C4555       C  0.80575406  0.79493512  0.43874436     1.04000
O4556       O  0.79411289  0.89151080  0.41097485    -0.95600
O4557       O  0.74378362  0.92809320  0.40586813    -0.91400
O4558       O  0.71250799  0.95038911  0.42831679    -0.84500
C4559       C  0.72345206  0.95086997  0.40545397     1.10600
O4560       O  0.67514921  0.01870269  0.45378991    -0.97600
Zr4561     Zr  0.71230877  0.81881542  0.47338068     1.88900
O4562       O  0.66817663  0.91038443  0.45711167    -0.74300
O4563       O  0.71432182  0.85079408  0.38979930    -0.53500
O4564       O  0.70142484  0.78439439  0.41979575    -0.98200
O4565       O  0.69499890  0.78590511  0.01131416    -0.55400
O4566       O  0.66424682  0.85106807  0.44200184    -0.74800
C4567       C  0.65239946  0.88193593  0.44159623     0.97600
O4568       O  0.72949252  0.98558246  0.49309858    -0.63600
O4569       O  0.80365429  0.88037127  0.12558947    -0.58400
O4570       O  0.71387838  0.94300082  0.03368821    -0.95100
O4571       O  0.74225175  0.91010512  0.08449465    -0.93500
O4572       O  0.86090897  0.94685275  0.07753173    -0.93900
O4573       O  0.81299916  0.95402481  0.07632652    -0.92600
C4574       C  0.72361653  0.93622922  0.06723142     1.16400
H4575       H  0.82927793  0.85139861  0.08570516     0.32400
H4576       H  0.77350864  0.94251241  0.47016972     0.43200
H4577       H  0.70004602  0.86835738  0.01746725     0.36700
H4578       H  0.75666098  0.79480226  0.45132235     0.33200
H4579       H  0.85519832  0.92628384  0.00218069     0.25000
H4580       H  0.70335124  0.87276593  0.37654953     0.30900
H4581       H  0.68381732  0.79744816  0.40044654     0.36900
H4582       H  0.87522066  0.94918168  0.06679563     0.31300
H4583       H  0.82164378  0.86377182  0.13362759     0.30200
H4584       H  0.73212153  0.80443951  0.08808409     0.31900
H4585       H  0.68483483  0.80438035  0.51971804     0.30800
H4586       H  0.79304908  0.96710452  0.06352566     0.34800
H4587       H  0.74510241  0.98918160  0.01772944     0.27600
H4588       H  0.83137120  0.99150307  0.03492426     0.31800
H4589       H  0.65442173  0.02993439  0.43970284     0.34700
H4590       H  0.81105472  0.90294673  0.11940576     0.27300
H4591       H  0.74003133  0.74350601  0.47902259     0.40100
H4592       H  0.81592878  0.88831267  0.42964196     0.30200
H4593       H  0.82094473  0.93299647  0.47210109     0.37800
H4594       H  0.71387876  0.77840440  0.03302050     0.29700
H4595       H  0.72006387  0.83753788  0.37340993     0.29700
H4596       H  0.79548962  0.98520178  0.51479732     0.30000
C4597       C  0.57066931  0.89817779  0.42139587     0.79200
N4598       N  0.60198491  0.90225362  0.43531706    -0.79100
C4599       C  0.61830309  0.88245352  0.42278350     0.81600
N4600       N  0.60326510  0.85780554  0.39647932    -0.79100
C4601       C  0.57206520  0.85290336  0.38185354     0.81700
N4602       N  0.55541217  0.87312748  0.39459414    -0.80800
C4603       C  0.82090599  0.77374767  0.42120063     0.79200
N4604       N  0.85223662  0.77762582  0.43511623    -0.79100
C4605       C  0.86849189  0.75739601  0.42281781     0.81600
N4606       N  0.85338978  0.98256082  0.39676130    -0.79100
C4607       C  0.82217762  0.97789621  0.38212627     0.81700
N4608       N  0.80558129  0.99848777  0.39465533    -0.80800
C4609       C  0.70888713  0.95747967  0.08523903     0.79200
N4610       N  0.72454902  0.98269814  0.11166138    -0.77900
C4611       C  0.70853024  0.75289061  0.12528473     0.81600
N4612       N  0.67745271  0.74772048  0.11186446    -0.79100
C4613       C  0.66189422  0.97317520  0.08554865     0.81700
N4614       N  0.67767157  0.95333958  0.07229317    -0.80800
Zr4615     Zr  0.55553308  0.93466912  0.02143000     2.17500
O4616       O  0.56335310  0.87194402  0.01392457    -0.52400
O4617       O  0.61172157  0.94649200  0.04992366    -0.75600
O4618       O  0.56502847  0.91256580  0.47250088    -0.82400
O4619       O  0.53781725  0.92732648  0.10335368    -0.84100
O4620       O  0.53643888  0.94498513  0.42151082    -0.79700
O4621       O  0.56739535  0.90475371  0.07883020    -0.91400
O4622       O  0.61609373  0.75443641  0.06862167    -0.77300
O4623       O  0.56099085  0.98857488  0.49437657    -0.86800
O4624       O  0.56153812  0.98081525  0.06284293    -0.86500
O4625       O  0.50839769  0.94022365  0.46643149    -0.73300
O4626       O  0.50894514  0.93335819  0.02824300    -0.85400
Zr4627     Zr  0.97462996  0.79532296  0.48610263     2.26400
Zr4628     Zr  0.51336776  0.99560216  0.43939696     2.06300
Zr4629     Zr  0.51452610  0.98231612  0.06844912     2.10000
Zr4630     Zr  0.56726764  0.78466923  0.03605425     1.78800
O4631       O  0.97680047  0.95605051  0.08445605    -0.94200
O4632       O  0.58596111  0.81406802  0.49745566    -0.42000
O4633       O  0.52052771  0.78620791  0.04157300    -0.78600
O4634       O  0.52155858  0.79458414  0.48032943    -0.97300
O4635       O  0.96670154  0.99755966  0.44536137    -0.90600
O4636       O  0.96795299  0.99151517  0.01326554    -0.93500
C4637       C  0.62775737  0.97409393  0.06720056     1.00300
C4638       C  0.55785560  0.90478503  0.10292852     1.13200
C4639       C  0.55544750  0.91923153  0.43896026     1.04000
O4640       O  0.54409887  0.76636138  0.41119860    -0.95600
O4641       O  0.99375459  0.80291807  0.40613914    -0.91400
O4642       O  0.96251256  0.82539822  0.42854238    -0.84500
C4643       C  0.97346142  0.82579772  0.40568345     1.10600
O4644       O  0.92555682  0.89307194  0.45386283    -0.97600
Zr4645     Zr  0.96225891  0.94363997  0.47353465     1.88900
O4646       O  0.91837216  0.78506552  0.45746104    -0.74300
O4647       O  0.96461750  0.97547411  0.38992317    -0.53500
O4648       O  0.95120702  0.90912682  0.41995423    -0.98200
O4649       O  0.94475992  0.91112624  0.01147884    -0.55400
O4650       O  0.91435834  0.97596120  0.44153119    -0.74800
C4651       C  0.90256630  0.00673486  0.44162987     0.97600
O4652       O  0.97961766  0.86047267  0.49328078    -0.63600
O4653       O  0.55397375  0.75533703  0.12559506    -0.58400
O4654       O  0.96388595  0.81796662  0.03366493    -0.95100
O4655       O  0.99229964  0.78520228  0.08452880    -0.93500
O4656       O  0.61166425  0.82067830  0.07766286    -0.93900
O4657       O  0.56398622  0.82865140  0.07707121    -0.92600
C4658       C  0.97365076  0.81127998  0.06720467     1.16400
H4659       H  0.57922939  0.97601927  0.08576095     0.32400
H4660       H  0.52363238  0.81733906  0.47051243     0.43200
H4661       H  0.95005592  0.99331454  0.01754957     0.36700
H4662       H  0.50648348  0.91963487  0.45145676     0.33200
H4663       H  0.60488574  0.80064327  0.00174191     0.25000
H4664       H  0.95370897  0.99740686  0.37652956     0.30900
H4665       H  0.93382134  0.92241992  0.40056087     0.36900
H4666       H  0.62567096  0.82323276  0.06654072     0.31300
H4667       H  0.57203205  0.73885913  0.13350732     0.30200
H4668       H  0.98142976  0.92986938  0.08749668     0.31900
H4669       H  0.93529288  0.93008906  0.52059917     0.30800
H4670       H  0.54382909  0.84142779  0.06484080     0.34800
H4671       H  0.99549831  0.86390600  0.01821423     0.27600
H4672       H  0.58214808  0.86648740  0.03643944     0.31800
H4673       H  0.90476627  0.90402086  0.43942409     0.34700
H4674       H  0.56120229  0.77802124  0.11938864     0.27300
H4675       H  0.99030834  0.86839233  0.47933520     0.40100
H4676       H  0.56592371  0.76330256  0.42988438     0.30200
H4677       H  0.57084827  0.80842885  0.47241189     0.37800
H4678       H  0.96361376  0.90312628  0.03296527     0.29700
H4679       H  0.97055298  0.96212591  0.37373976     0.29700
H4680       H  0.54623522  0.85970706  0.51585570     0.30000
C4681       C  0.96082288  0.89811832  0.83634016     0.79200
N4682       N  0.97605326  0.87304255  0.86312510    -0.79100
C4683       C  0.95938385  0.85286578  0.87587915     0.81600
N4684       N  0.92819920  0.85784586  0.86128613    -0.79100
C4685       C  0.91319709  0.88252249  0.83500460     0.81700
N4686       N  0.92952281  0.90227061  0.82245109    -0.80800
Zr4687     Zr  0.72598381  0.80995424  0.73652463     2.17500
O4688       O  0.71894986  0.99735789  0.74523939    -0.52400
O4689       O  0.66981463  0.82193803  0.70797537    -0.75600
O4690       O  0.71602690  0.78842831  0.78532221    -0.82400
O4691       O  0.74344148  0.80228442  0.65458325    -0.84100
O4692       O  0.74519829  0.82015417  0.83661002    -0.79700
O4693       O  0.71394111  0.77965696  0.67920533    -0.91400
O4694       O  0.66554808  0.87996401  0.68940133    -0.77300
O4695       O  0.72067607  0.86377770  0.76364854    -0.86800
O4696       O  0.72002631  0.85608917  0.69509135    -0.86500
O4697       O  0.77314045  0.81534367  0.79154226    -0.73300
O4698       O  0.77257629  0.80846635  0.72968928    -0.85400
Zr4699     Zr  0.80708474  0.92040730  0.77191478     2.26400
Zr4700     Zr  0.76825651  0.87067307  0.81866355     2.06300
Zr4701     Zr  0.76703592  0.85733310  0.68943326     2.10000
Zr4702     Zr  0.71450189  0.90992234  0.72198351     1.78800
O4703       O  0.80473232  0.83062750  0.67341622    -0.94200
O4704       O  0.69583130  0.93933548  0.76061077    -0.42000
O4705       O  0.76122124  0.91117577  0.71646012    -0.78600
O4706       O  0.76016374  0.91975444  0.77781789    -0.97300
O4707       O  0.81493688  0.87260109  0.81269423    -0.90600
O4708       O  0.81365195  0.86656826  0.74457045    -0.93500
C4709       C  0.65380435  0.84964574  0.69090470     1.00300
C4710       C  0.72346699  0.77965848  0.65507626     1.13200
C4711       C  0.72583031  0.79478372  0.81896024     1.04000
O4712       O  0.73729806  0.89123967  0.84669075    -0.95600
O4713       O  0.78772244  0.92803329  0.85189786    -0.91400
O4714       O  0.81910063  0.95023307  0.82955597    -0.84500
C4715       C  0.80811664  0.95075162  0.85237783     1.10600
O4716       O  0.85638313  0.01859119  0.80458531    -0.97600
Zr4717     Zr  0.81929834  0.81873176  0.78442931     1.88900
O4718       O  0.86336282  0.91048848  0.80074718    -0.74300
O4719       O  0.81716205  0.85083266  0.86816282    -0.53500
O4720       O  0.83023359  0.78435851  0.83805311    -0.98200
O4721       O  0.83680566  0.78600474  0.74649720    -0.55400
O4722       O  0.86729026  0.85111341  0.81565202    -0.74800
C4723       C  0.87912588  0.88201502  0.81617655     0.97600
O4724       O  0.80212908  0.98555982  0.76495870    -0.63600
O4725       O  0.72780245  0.88016939  0.63216925    -0.58400
O4726       O  0.81777040  0.94297150  0.72418660    -0.95100
O4727       O  0.78935971  0.91013016  0.67335569    -0.93500
O4728       O  0.67081155  0.94673425  0.68029526    -0.93900
O4729       O  0.71829056  0.95414036  0.68154041    -0.92600
C4730       C  0.80800659  0.93624257  0.69063760     1.16400
H4731       H  0.70229879  0.85138053  0.67217086     0.32400
H4732       H  0.75806217  0.94248301  0.78765199     0.43200
H4733       H  0.83155599  0.86834809  0.74029340     0.36700
H4734       H  0.77495544  0.79473996  0.80646439     0.33200
H4735       H  0.67658168  0.92602196  0.75592166     0.25000
H4736       H  0.82816211  0.87285137  0.88126990     0.30900
H4737       H  0.84750865  0.79775650  0.85747563     0.36900
H4738       H  0.65657767  0.94931038  0.69111094     0.31300
H4739       H  0.70985680  0.86350769  0.62419366     0.30200
H4740       H  0.79979909  0.80452285  0.67003498     0.31900
H4741       H  0.84658584  0.80446244  0.73786902     0.30800
H4742       H  0.73844200  0.96687679  0.69404968     0.34800
H4743       H  0.78632375  0.98902694  0.73973334     0.27600
H4744       H  0.69992000  0.99163554  0.72307389     0.31800
H4745       H  0.87711853  0.02979605  0.81869303     0.34700
H4746       H  0.72037078  0.90272961  0.63833879     0.27300
H4747       H  0.79126527  0.74345533  0.77868358     0.40100
H4748       H  0.71550223  0.88813456  0.82793748     0.30200
H4749       H  0.71057767  0.93299058  0.78560237     0.37800
H4750       H  0.81794715  0.77820879  0.72491556     0.29700
H4751       H  0.81137915  0.83779618  0.88462774     0.29700
H4752       H  0.73603765  0.98516701  0.74300153     0.30000
C4753       C  0.57267997  0.83254179  0.67263568     0.79200
N4754       N  0.55693466  0.85767875  0.64619471    -0.79100
C4755       C  0.57295607  0.87812201  0.63283512     0.81600
N4756       N  0.60408014  0.87327645  0.64637323    -0.79100
C4757       C  0.61967638  0.84873673  0.67261055     0.81700
N4758       N  0.60393148  0.82867882  0.68573849    -0.80800
C4759       C  0.82274637  0.95751254  0.67265939     0.79200
N4760       N  0.80708840  0.98268553  0.64618339    -0.79100
C4761       C  0.82311816  0.75284753  0.63258092     0.81600
N4762       N  0.85419259  0.74766262  0.64598660    -0.79100
C4763       C  0.86974375  0.97315273  0.67235069     0.81700
N4764       N  0.85396408  0.95338083  0.68564312    -0.80800
Zr4765     Zr  0.97608682  0.93459613  0.73641442     2.17500
O4766       O  0.96837809  0.87185737  0.74409875    -0.52400
O4767       O  0.91990854  0.94648697  0.70807166    -0.75600
O4768       O  0.96651996  0.91241327  0.78525593    -0.82400
O4769       O  0.99373724  0.92730520  0.65445189    -0.84100
O4770       O  0.99500827  0.94494439  0.83620098    -0.79700
O4771       O  0.96423750  0.90464776  0.67904600    -0.91400
O4772       O  0.91558655  0.75427422  0.68886577    -0.77300
O4773       O  0.97060485  0.98845178  0.76339837    -0.86800
O4774       O  0.97007056  0.98072742  0.69497554    -0.86500
O4775       O  0.52319266  0.94017461  0.79145984    -0.73300
O4776       O  0.52264004  0.93335512  0.72957699    -0.85400
Zr4777     Zr  0.55698952  0.79529688  0.77169005     2.26400
Zr4778     Zr  0.51814954  0.99554645  0.81844357     2.06300
Zr4779     Zr  0.51705588  0.98232484  0.68938638     2.10000
Zr4780     Zr  0.96433633  0.78456484  0.72168079     1.78800
O4781       O  0.55475194  0.95568854  0.67337107    -0.94200
O4782       O  0.94560638  0.81383817  0.76031601    -0.42000
O4783       O  0.51109764  0.78620242  0.71620732    -0.78600
O4784       O  0.51004618  0.79457486  0.77752456    -0.97300
O4785       O  0.56483079  0.99751503  0.81250477    -0.90600
O4786       O  0.56366033  0.99152217  0.74448919    -0.93500
C4787       C  0.90387431  0.97403944  0.69066935     1.00300
C4788       C  0.97374708  0.90471664  0.65492202     1.13200
C4789       C  0.97605202  0.91914086  0.81877495     1.04000
O4790       O  0.98752391  0.76645434  0.84674014    -0.95600
O4791       O  0.53782334  0.80292105  0.85159173    -0.91400
O4792       O  0.56917437  0.82528841  0.82928878    -0.84500
C4793       C  0.55817450  0.82573918  0.85209682     1.10600
O4794       O  0.60600175  0.89305193  0.80438059    -0.97600
Zr4795     Zr  0.56931919  0.94362597  0.78432090     1.88900
O4796       O  0.61322760  0.78510637  0.80038577    -0.74300
O4797       O  0.56683830  0.97532026  0.86801331    -0.53500
O4798       O  0.58045127  0.90900232  0.83784615    -0.98200
O4799       O  0.58695794  0.91136518  0.74625085    -0.55400
O4800       O  0.61723091  0.97597181  0.81609182    -0.74800
C4801       C  0.62901040  0.00680617  0.81619870     0.97600
O4802       O  0.55206056  0.86044341  0.76447496    -0.63600
O4803       O  0.97784717  0.75521580  0.63219827    -0.58400
O4804       O  0.56773952  0.81788597  0.72408493    -0.95100
O4805       O  0.53935201  0.78508975  0.67323569    -0.93500
O4806       O  0.91996402  0.82068316  0.68019852    -0.93900
O4807       O  0.96758340  0.82854972  0.68067167    -0.92600
C4808       C  0.55799175  0.81117839  0.69055189     1.16400
H4809       H  0.95239663  0.97590229  0.67205129     0.32400
H4810       H  0.50795790  0.81733282  0.78732923     0.43200
H4811       H  0.58155784  0.99336017  0.74020924     0.36700
H4812       H  0.52511020  0.91959509  0.80644707     0.33200
H4813       H  0.92663848  0.80009734  0.75599323     0.25000
H4814       H  0.57782148  0.99723381  0.88137395     0.30900
H4815       H  0.59760493  0.92250865  0.85730844     0.36900
H4816       H  0.90592368  0.82310954  0.69128940     0.31300
H4817       H  0.95970979  0.73886962  0.62434227     0.30200
H4818       H  0.54997157  0.92954394  0.67022278     0.31900
H4819       H  0.59631221  0.93001675  0.73729450     0.30800
H4820       H  0.98774255  0.84131569  0.69291941     0.34800
H4821       H  0.53607372  0.86382675  0.73931164     0.27600
H4822       H  0.94945765  0.86638723  0.72171594     0.31800
H4823       H  0.62682236  0.90405185  0.81849439     0.34700
H4824       H  0.97073744  0.77801973  0.63834443     0.27300
H4825       H  0.54150624  0.86842578  0.77855021     0.40100
H4826       H  0.96568115  0.76322996  0.82816374     0.30200
H4827       H  0.96058076  0.80790837  0.78533678     0.37800
H4828       H  0.56812920  0.90310808  0.72487816     0.29700
H4829       H  0.56086478  0.96207046  0.88421303     0.29700
H4830       H  0.98554283  0.85959061  0.74207284     0.30000
C4831       C  0.71066217  0.77363477  0.83650449     0.79200
N4832       N  0.67934090  0.77756420  0.82260148    -0.79100
C4833       C  0.66308331  0.75741691  0.83495457     0.81600
N4834       N  0.67815771  0.98259444  0.86105560    -0.79100
C4835       C  0.70936058  0.97786220  0.87566142     0.81700
N4836       N  0.72596929  0.99842708  0.86312691    -0.80800
C4837       C  0.95902249  0.83247960  0.58522301     0.79200
N4838       N  0.92776449  0.82862362  0.57210138    -0.79100
C4839       C  0.91201349  0.84866933  0.58523597     0.81600
N4840       N  0.92761990  0.87318430  0.61149605    -0.79100
C4841       C  0.95874727  0.87802811  0.62503477     0.81700
N4842       N  0.97476873  0.85759693  0.61167476    -0.80800
Zr4843     Zr  0.80566022  0.81002637  0.52123964     2.17500
O4844       O  0.81259944  0.99734669  0.51256713    -0.52400
O4845       O  0.86184913  0.82192447  0.54979039    -0.75600
O4846       O  0.81559135  0.78851541  0.97246731    -0.82400
O4847       O  0.78829998  0.80239995  0.60326812    -0.84100
O4848       O  0.78642316  0.82024459  0.92118078    -0.79700
O4849       O  0.81772851  0.77971278  0.57857735    -0.91400
O4850       O  0.86611702  0.87991090  0.56847362    -0.77300
O4851       O  0.81101876  0.86392030  0.99423678    -0.86800
O4852       O  0.81163480  0.85612869  0.56269464    -0.86500
O4853       O  0.75855181  0.81545513  0.96627822    -0.73300
O4854       O  0.75908239  0.80860077  0.52809035    -0.85400
Zr4855     Zr  0.72450268  0.92045088  0.98587563     2.26400
Zr4856     Zr  0.76345339  0.87080075  0.93919433     2.06300
Zr4857     Zr  0.76464418  0.85742328  0.56838407     2.10000
Zr4858     Zr  0.81715933  0.90995842  0.53580788     1.78800
O4859       O  0.72682506  0.83047554  0.58406709    -0.94200
O4860       O  0.83588782  0.93950422  0.99740794    -0.42000
O4861       O  0.77041027  0.91121908  0.54128625    -0.78600
O4862       O  0.77149206  0.91981262  0.98008277    -0.97300
O4863       O  0.71673070  0.87268648  0.94509230    -0.90600
O4864       O  0.71798817  0.86662673  0.51328255    -0.93500
C4865       C  0.87786902  0.84960221  0.56692665     1.00300
C4866       C  0.80822883  0.77972835  0.60273275     1.13200
C4867       C  0.80577081  0.79485404  0.93882497     1.04000
O4868       O  0.79453324  0.89159200  0.91137334    -0.95600
O4869       O  0.74391369  0.92811386  0.90590331    -0.91400
O4870       O  0.71240738  0.95014442  0.92814259    -0.84500
C4871       C  0.72344271  0.95074550  0.90536869     1.10600
O4872       O  0.67508093  0.01881736  0.95351159    -0.97600
Zr4873     Zr  0.71235798  0.81880234  0.97333545     1.88900
O4874       O  0.66821696  0.91038026  0.95720669    -0.74300
O4875       O  0.71453811  0.85084853  0.88978150    -0.53500
O4876       O  0.70147991  0.78439139  0.91975632    -0.98200
O4877       O  0.69484902  0.78600361  0.51130464    -0.55400
O4878       O  0.66431772  0.85110069  0.94198648    -0.74800
C4879       C  0.65245631  0.88194419  0.94163946     0.97600
O4880       O  0.72931540  0.98562377  0.99251289    -0.63600
O4881       O  0.80387518  0.88062076  0.62548564    -0.58400
O4882       O  0.71380242  0.94292262  0.53368738    -0.95100
O4883       O  0.74240334  0.91022970  0.58456956    -0.93500
O4884       O  0.86097437  0.94671049  0.57736793    -0.93900
O4885       O  0.81328531  0.95407154  0.57629237    -0.92600
C4886       C  0.72366063  0.93626113  0.56726777     1.16400
H4887       H  0.82935606  0.85140095  0.58561466     0.32400
H4888       H  0.77358350  0.94252775  0.97021817     0.43200
H4889       H  0.70009567  0.86838569  0.51758459     0.36700
H4890       H  0.75673595  0.79485358  0.95135498     0.33200
H4891       H  0.85497247  0.92614345  0.50174943     0.25000
H4892       H  0.70357403  0.87280810  0.87650140     0.30900
H4893       H  0.68393725  0.79751674  0.90039439     0.36900
H4894       H  0.87516999  0.94919945  0.56649157     0.31300
H4895       H  0.82185787  0.86400698  0.63355201     0.30200
H4896       H  0.73212165  0.80448508  0.58802092     0.31900
H4897       H  0.68494444  0.80424306  0.01971362     0.30800
H4898       H  0.79316614  0.96687019  0.56377633     0.34800
H4899       H  0.74537138  0.98896807  0.51830424     0.27600
H4900       H  0.83161427  0.99158016  0.53473124     0.31800
H4901       H  0.65440452  0.03005896  0.93914316     0.34700
H4902       H  0.81125396  0.90313670  0.61917297     0.27300
H4903       H  0.74018051  0.74348744  0.97886561     0.40100
H4904       H  0.81631669  0.88816513  0.93004777     0.30200
H4905       H  0.82120264  0.93308470  0.97241481     0.37800
H4906       H  0.71371889  0.77846320  0.53300098     0.29700
H4907       H  0.72032187  0.83756802  0.87344146     0.29700
H4908       H  0.79524181  0.98533220  0.01452942     0.30000
C4909       C  0.57071855  0.89807936  0.92143995     0.79200
N4910       N  0.60203093  0.90218799  0.93537225    -0.79100
C4911       C  0.61836571  0.88243807  0.92282525     0.81600
N4912       N  0.60335261  0.85780352  0.89650026    -0.79100
C4913       C  0.57215834  0.85286525  0.88186566     0.81700
N4914       N  0.55548439  0.87304628  0.89461146    -0.80800
C4915       C  0.82091380  0.77365541  0.92128953     0.79200
N4916       N  0.85224844  0.77748054  0.93525800    -0.79100
C4917       C  0.86849695  0.75728371  0.92293335     0.81600
N4918       N  0.85341832  0.98250096  0.89674545    -0.79100
C4919       C  0.82220732  0.97783696  0.88210806     0.81700
N4920       N  0.80561199  0.99842315  0.89464831    -0.80800
C4921       C  0.70893025  0.95751824  0.58526691     0.79200
N4922       N  0.72459171  0.98270166  0.61172648    -0.77900
C4923       C  0.70855339  0.75281376  0.62521746     0.81600
N4924       N  0.67747036  0.74769641  0.61179184    -0.79100
C4925       C  0.66191707  0.97326431  0.58549590     0.81700
N4926       N  0.67770426  0.95342809  0.57225733    -0.80800
Zr4927     Zr  0.55556476  0.93474314  0.52143025     2.17500
O4928       O  0.56339764  0.87202450  0.51386644    -0.52400
O4929       O  0.61174075  0.94663819  0.54974442    -0.75600
O4930       O  0.56509794  0.91252381  0.97255492    -0.82400
O4931       O  0.53805665  0.92749925  0.60350594    -0.84100
O4932       O  0.53639766  0.94480276  0.92150266    -0.79700
O4933       O  0.56741059  0.90472851  0.57877766    -0.91400
O4934       O  0.61607548  0.75437138  0.56891626    -0.77300
O4935       O  0.56095684  0.98851360  0.99438554    -0.86800
O4936       O  0.56165216  0.98088729  0.56288741    -0.86500
O4937       O  0.50839760  0.94008944  0.96637965    -0.73300
O4938       O  0.50902602  0.93347123  0.52834391    -0.85400
Zr4939     Zr  0.97457880  0.79529660  0.98604721     2.26400
Zr4940     Zr  0.51335562  0.99548010  0.93935561     2.06300
Zr4941     Zr  0.51467349  0.98243781  0.56855936     2.10000
Zr4942     Zr  0.56731197  0.78468873  0.53612920     1.78800
O4943       O  0.97697223  0.95576527  0.58467987    -0.94200
O4944       O  0.58576879  0.81412639  0.99729008    -0.42000
O4945       O  0.52055380  0.78626939  0.54161744    -0.78600
O4946       O  0.52155438  0.79455917  0.98022999    -0.97300
O4947       O  0.96672483  0.99751683  0.94524111    -0.90600
O4948       O  0.96795880  0.99152392  0.51339956    -0.93500
C4949       C  0.62778361  0.97418163  0.56715071     1.00300
C4950       C  0.55796555  0.90483765  0.60295947     1.13200
C4951       C  0.55547239  0.91911726  0.93899155     1.04000
O4952       O  0.54395426  0.76607978  0.91088615    -0.95600
O4953       O  0.99377455  0.80296847  0.90619691    -0.91400
O4954       O  0.96231390  0.82522096  0.92839804    -0.84500
C4955       C  0.97336412  0.82572882  0.90563818     1.10600
O4956       O  0.92549574  0.89315919  0.95339771    -0.97600
Zr4957     Zr  0.96231538  0.94360751  0.97344623     1.88900
O4958       O  0.91834840  0.78498808  0.95750252    -0.74300
O4959       O  0.96467040  0.97544727  0.88980759    -0.53500
O4960       O  0.95132765  0.90921380  0.91982422    -0.98200
O4961       O  0.94452590  0.91140333  0.51152931    -0.55400
O4962       O  0.91438479  0.97589093  0.94157753    -0.74800
C4963       C  0.90258537  0.00667548  0.94160513     0.97600
O4964       O  0.97950287  0.86045933  0.99306878    -0.63600
O4965       O  0.55404915  0.75551665  0.62564411    -0.58400
O4966       O  0.96398133  0.81788109  0.53378765    -0.95100
O4967       O  0.99236350  0.78506440  0.58462643    -0.93500
O4968       O  0.61172387  0.82078142  0.57757091    -0.93900
O4969       O  0.56402413  0.82872265  0.57708937    -0.92600
C4970       C  0.97372255  0.81114816  0.56731369     1.16400
H4971       H  0.57932920  0.97607522  0.58581392     0.32400
H4972       H  0.52363633  0.81731778  0.97042333     0.43200
H4973       H  0.95007102  0.99334995  0.51769933     0.36700
H4974       H  0.50650898  0.91948390  0.95143310     0.33200
H4975       H  0.60478875  0.80017411  0.50151447     0.25000
H4976       H  0.95376627  0.99737163  0.87639436     0.30900
H4977       H  0.93391940  0.92249763  0.90044835     0.36900
H4978       H  0.62572585  0.82322333  0.56643067     0.31300
H4979       H  0.57208681  0.73899979  0.63361255     0.30200
H4980       H  0.98153482  0.92956290  0.58746931     0.31900
H4981       H  0.93517934  0.92967954  0.02025669     0.30800
H4982       H  0.54383937  0.84144711  0.56488520     0.34800
H4983       H  0.99550868  0.86386640  0.51848528     0.27600
H4984       H  0.58231118  0.86662055  0.53627876     0.31800
H4985       H  0.90471786  0.90420802  0.93914278     0.34700
H4986       H  0.56131462  0.77814191  0.61938414     0.27300
H4987       H  0.99004848  0.86837970  0.97896464     0.40100
H4988       H  0.56579689  0.76319049  0.92957514     0.30200
H4989       H  0.57088838  0.80795522  0.97229845     0.37800
H4990       H  0.96333874  0.90300437  0.53284238     0.29700
H4991       H  0.97062544  0.96208841  0.87364925     0.29700
H4992       H  0.54606947  0.85967994  0.01569994     0.30000
loop_ 
_geom_bond_atom_site_label_1 
_geom_bond_atom_site_label_2 
_geom_bond_distance 
_geom_bond_site_symmetry_2 
_ccdc_geom_bond_type 
C1            N2   1.379       .  A
C1            N6   1.359       .  A
C1          C109   1.482       .  S
N2            C3   1.377       .  A
C3            N4   1.355       .  A
C3          C275   1.499       .  S
N4            C5   1.356       .  A
C5            N6   1.350       .  A
C5           C43   1.465       .  S
Zr7           O9   2.455       .  S
Zr7          O10   2.447       .  S
Zr7          O13   2.470       .  S
Zr7          O15   2.365       .  S
Zr7          O16   2.357       .  S
Zr7          O17   2.393       .  S
Zr7          O18   2.404       .  S
Zr7        O1880   2.392   1_545  S
O8         Zr631   2.391       .  S
O8           H64   0.984       .  S
O8           H72   0.984       .  S
O9           C29   1.285       .  A
O10          C31   1.288       .  A
O11         Zr21   2.458       .  S
O11          C30   1.286       .  A
O12         Zr20   2.466       .  S
O12          C31   1.291       .  A
O13          C30   1.294       .  A
O14         Zr22   2.393       .  S
O14          C29   1.271       .  A
O15         Zr20   2.408       .  S
O15         Zr22   2.362       .  S
O16         Zr21   2.397       .  S
O16         Zr22   2.363       .  S
O16          H51   0.965       .  S
O17         Zr20   2.405       .  S
O17         Zr37   2.392       .  S
O17          H54   0.964       .  S
O18         Zr21   2.403       .  S
O18         Zr37   2.398       .  S
Zr19         O38   2.447       .  S
Zr19         O46   2.440       .  S
Zr19         O34   2.474       .  S
Zr19         O25   2.388       .  S
Zr19         O26   2.399       .  S
Zr19         O27   2.367       .  S
Zr19         O28   2.391       .  S
Zr19         O44   2.423       .  S
Zr20         O33   2.473       .  S
Zr20         O26   2.402       .  S
Zr20         O27   2.389       .  S
Zr20         O39   2.434       .  S
Zr20         O32   2.419       .  S
Zr21         O47   2.472       .  S
Zr21         O25   2.372       .  S
Zr21         O28   2.398       .  S
Zr21         O23   2.429       .  S
Zr21         O45   2.427       .  S
Zr22         O25   2.381       .  S
Zr22         O26   2.395       .  S
Zr22         O48   2.444       .  S
Zr22         O49   2.425       .  S
Zr22         O24   2.449       .  S
O23          H60   0.988       .  S
O24          H55   0.990       .  S
O24          H69   0.988       .  S
O26          H52   0.962       .  S
O27         Zr37   2.377       .  S
O28         Zr37   2.363       .  S
O28          H53   0.966       .  S
C29          C77   1.467       .  S
C30         C243   1.498       .  S
C31         C151   1.482       .  S
O32          H68   0.990       .  S
O33          C35   1.290       .  A
O34          C35   1.294       .  A
C35         C239   1.497       .  S
O36        Zr661   2.444       .  S
O36          H65   0.991       .  S
Zr37         O42   2.395       .  S
Zr37         O40   2.423       .  S
Zr37         O41   2.444       .  S
Zr37       O1908   2.444       .  S
O38          C43   1.286       .  A
O39          H56   0.989       .  S
O39          H71   0.984       .  S
O40          H57   0.990       .  S
O41          H61   0.990       .  S
O41          H70   0.987       .  S
O42          C43   1.273       .  A
O44          H63   0.988       .  S
O44         H691   0.989       .  S
O45          H59   0.989       .  S
O45          H66   0.989       .  S
O46          C50   1.288       .  A
O47          C50   1.292       .  A
O48          H58   0.991       .  S
O49          H62   0.988       .  S
C50          C79   1.483       .  S
H67        O1916   0.989       .  S
C73          N74   1.377       .  A
C73          N78   1.358       .  A
C73         C128   1.480       .  S
N74          C75   1.375       .  A
C75          N76   1.355       .  A
C75         C270   1.495       .  S
N76          C77   1.356       .  A
C77          N78   1.351       .  A
C79          N80   1.378       .  A
C79          N84   1.359       .  A
N80         C705   1.376       .  A
C81          N82   1.355   1_545  A
C81        N1952   1.376   1_545  A
C81         C186   1.498       .  S
N82        C1955   1.356       .  A
C83          N84   1.351       .  A
C83         N706   1.356       .  A
C83         C107   1.467       .  S
Zr85         O87   2.454       .  S
Zr85         O88   2.447       .  S
Zr85         O91   2.468       .  S
Zr85         O93   2.365       .  S
Zr85         O94   2.357       .  S
Zr85       O2591   2.393       .  S
Zr85       O2592   2.404       .  S
Zr85         O86   2.393       .  S
O86         H142   0.984       .  S
O86         H150   0.985       .  S
O87         C107   1.284       .  A
O88         C109   1.288       .  A
O89       Zr2595   2.455       .  S
O89         C108   1.286       .  A
O90       Zr2594   2.467       .  S
O90         C109   1.291       .  A
O91         C108   1.293       .  A
O92        Zr100   2.393       .  S
O92        C1979   1.271   1_545  A
O93       Zr2594   2.409       .  S
O93        Zr724   2.363       .  S
O94       Zr2595   2.396       .  S
O94        Zr724   2.363       .  S
O94         H129   0.965       .  S
O95         Zr98   2.406       .  S
O95        Zr115   2.392       .  S
O95       Zr2581   2.393   1_455  S
O95         H132   0.964       .  S
O96         Zr99   2.404       .  S
O96        Zr115   2.397       .  S
O96       Zr2581   2.403   1_455  S
Zr97        O116   2.447       .  S
Zr97        O124   2.436       .  S
Zr97        O112   2.474       .  S
Zr97        O103   2.388       .  S
Zr97        O104   2.398       .  S
Zr97       O1977   2.367   1_545  S
Zr97       O1978   2.391   1_545  S
Zr97        O122   2.424       .  S
Zr98       O2586   2.467   1_455  S
Zr98        O735   2.475       .  S
Zr98        O105   2.388       .  S
Zr98       O2589   2.409   1_455  S
Zr98        O728   2.403       .  S
Zr98        O117   2.433       .  S
Zr98       O3230   2.419   1_455  S
Zr99       O2585   2.454   1_455  S
Zr99        O749   2.468       .  S
Zr99        O106   2.397       .  S
Zr99       O2590   2.397   1_455  S
Zr99        O727   2.371       .  S
Zr99        O101   2.428       .  S
Zr99       O3243   2.427   1_455  S
Zr100      O1965   2.363   1_545  S
Zr100      O1966   2.363   1_545  S
Zr100      O2599   2.381       .  S
Zr100      O2600   2.396       .  S
Zr100       O126   2.445       .  S
Zr100       O127   2.427       .  S
Zr100       O102   2.448       .  S
O101        H138   0.988       .  S
O102        H133   0.990       .  S
O102        H147   0.988       .  S
O103      Zr1971   2.371   1_545  S
O103      Zr2596   2.381   1_455  S
O104      Zr1970   2.403   1_545  S
O104      Zr2596   2.396   1_455  S
O104        H130   0.962       .  S
O105       Zr115   2.378       .  S
O105       Zr721   2.367       .  S
O106       Zr115   2.363       .  S
O106       Zr721   2.390       .  S
O106        H131   0.966       .  S
C107        O716   1.271       .  A
C108        C161   1.495       .  S
O110      Zr4466   2.419   1_545  S
O110        H146   0.990       .  S
O111      Zr1970   2.476   1_545  S
O111        C113   1.290       .  A
O112        C113   1.295       .  A
C113        C233   1.499       .  S
O114       Zr115   2.445       .  S
O114        H143   0.991       .  S
Zr115       O120   2.394       .  S
Zr115       O118   2.423       .  S
Zr115       O119   2.445       .  S
O116       C1993   1.286       .  A
O117        H134   0.989       .  S
O117        H149   0.984       .  S
O118        H135   0.990       .  S
O119        H139   0.990       .  S
O119        H148   0.987       .  S
O120        C121   1.273       .  A
C121        C777   1.463       .  S
C121        O740   1.286       .  A
O122        H141   0.988       .  S
O122        H145   0.989       .  S
O123      Zr4467   2.427   1_545  S
O123        H137   0.989   1_545  S
O123        H144   0.989       .  S
O124        C128   1.287       .  A
O125      Zr1971   2.469   1_545  S
O125        C128   1.291       .  A
O126        H136   0.991       .  S
O127        H140   0.988       .  S
C151        N152   1.359       .  A
C151       N2028   1.379   1_545  A
N152        C153   1.350       .  A
C153       N2026   1.355   1_545  A
C153       C1993   1.464       .  S
N154        C155   1.355       .  A
N154        C777   1.355       .  A
C155        N156   1.377       .  A
C155        C191   1.497       .  S
N156        C775   1.379       .  A
C157        N158   1.359       .  A
C157        N162   1.377       .  A
C157        C290   1.480       .  S
N158        C159   1.351       .  A
C159        N160   1.356       .  A
C159        C185   1.468       .  S
N160        C161   1.355       .  A
C161        N162   1.375       .  A
Zr163       O165   2.455       .  S
Zr163       O169   2.470       .  S
Zr163       O478   2.446   1_554  S
Zr163       O172   2.357       .  S
Zr163       O174   2.404       .  S
Zr163       O483   2.364   1_554  S
Zr163       O485   2.393   1_554  S
Zr163      O2036   2.392   1_545  S
O164       Zr787   2.392       .  S
O164        H220   0.984       .  S
O164        H540   0.984       .  S
O165        C185   1.285       .  A
O166       Zr475   2.447       .  S
O166        C187   1.288       .  A
O167       Zr177   2.459       .  S
O167        C186   1.286       .  A
O168       Zr176   2.466       .  S
O168        C187   1.291       .  A
O169        C186   1.294       .  A
O170       Zr178   2.395       .  S
O170        C185   1.272       .  A
O171       Zr176   2.408       .  S
O171       Zr475   2.365       .  S
O171       Zr490   2.362       .  S
O172       Zr177   2.397       .  S
O172       Zr178   2.363       .  S
O172        H207   0.965       .  S
O173       Zr176   2.405       .  S
O173       Zr193   2.393       .  S
O173       Zr475   2.393       .  S
O173        H210   0.964       .  S
O174       Zr177   2.403       .  S
O174       Zr505   2.397   1_554  S
Zr175       O194   2.446       .  S
Zr175       O190   2.475       .  S
Zr175       O514   2.439       .  S
Zr175       O182   2.399       .  S
Zr175       O183   2.367       .  S
Zr175       O493   2.387       .  S
Zr175       O496   2.391       .  S
Zr175       O200   2.423       .  S
Zr176       O189   2.472       .  S
Zr176       O182   2.402       .  S
Zr176       O183   2.389       .  S
Zr176       O195   2.434       .  S
Zr176       O188   2.418       .  S
Zr177       O203   2.471       .  S
Zr177       O181   2.371       .  S
Zr177       O184   2.398       .  S
Zr177       O179   2.429       .  S
Zr177       O201   2.427       .  S
Zr178       O181   2.380       .  S
Zr178       O483   2.362   1_554  S
Zr178       O494   2.395   1_554  S
Zr178       O204   2.444       .  S
Zr178       O205   2.425       .  S
Zr178       O492   2.448   1_554  S
O179        H216   0.988       .  S
O180       Zr490   2.448       .  S
O180        H225   0.988       .  S
O180        H523   0.990       .  S
O181       Zr487   2.388   1_554  S
O182       Zr490   2.395       .  S
O182        H208   0.962       .  S
O183       Zr193   2.377       .  S
O184       Zr487   2.391   1_554  S
O184       Zr505   2.363   1_554  S
O184        H209   0.966       .  S
C187        C235   1.482       .  S
O188        H224   0.990       .  S
O189        C191   1.289       .  A
O190        C191   1.295       .  A
O192       Zr817   2.444       .  S
O192        H221   0.991       .  S
Zr193       O198   2.397       .  S
Zr193       O486   2.398       .  S
Zr193       O496   2.363       .  S
Zr193       O196   2.423       .  S
Zr193      O2064   2.444       .  S
Zr193       O509   2.444       .  S
O194        C199   1.286       .  A
O195        H212   0.989       .  S
O195        H227   0.984       .  S
O196        H213   0.990       .  S
O197       Zr505   2.444   1_554  S
O197        H226   0.987       .  S
O197        H529   0.990       .  S
O198        C199   1.274       .  A
C199        C231   1.465       .  S
O200        H531   0.988       .  S
O200        H847   0.989       .  S
O201        H215   0.989       .  S
O201        H222   0.989       .  S
O202       Zr487   2.440   1_554  S
O202        C206   1.288       .  A
O203        C206   1.292       .  A
O204        H214   0.990       .  S
O205        H218   0.988       .  S
C206        C241   1.483       .  S
H211        O492   0.990   1_554  S
H217        O509   0.990       .  S
H219        O512   0.988   1_554  S
H223       O2072   0.989       .  S
H228        O476   0.984       .  S
C229        N230   1.359       .  A
C229        N234   1.379       .  A
C229        C271   1.482       .  S
N230        C231   1.350       .  A
C231        N232   1.356       .  A
N232        C233   1.355       .  A
C233        N234   1.377       .  A
C235        N236   1.359       .  A
C235       N2112   1.379   1_545  A
N236        C237   1.350       .  A
C237       N2110   1.356   1_545  A
C237       C2155   1.464       .  S
N238        C239   1.355       .  A
N238        C861   1.355       .  A
C239        N240   1.376       .  A
N240        C859   1.379       .  A
C241        N242   1.378       .  A
C241        N246   1.359       .  A
N242        C867   1.376       .  A
C243        N244   1.355   1_545  A
C243       N2114   1.376   1_545  A
N244       C2117   1.356       .  A
C245        N246   1.351       .  A
C245        N868   1.356       .  A
C245        C269   1.467       .  S
Zr247       O249   2.454       .  S
Zr247       O253   2.468       .  S
Zr247       O562   2.447   1_554  S
Zr247       O256   2.357       .  S
Zr247       O258   2.403       .  S
Zr247       O567   2.365   1_554  S
Zr247       O569   2.393   1_554  S
Zr247       O248   2.392       .  S
O248        H304   0.984       .  S
O248        H624   0.985       .  S
O249        C269   1.284       .  A
O250       Zr559   2.445       .  S
O250        C271   1.288       .  A
O251       Zr261   2.454       .  S
O251        C270   1.286       .  A
O252       Zr260   2.467       .  S
O252        C271   1.291       .  A
O253        C270   1.293       .  A
O254       Zr262   2.393       .  S
O254       C2141   1.271   1_545  A
O255       Zr260   2.409       .  S
O255       Zr559   2.365       .  S
O255      Zr1198   2.363       .  S
O256       Zr261   2.396       .  S
O256       Zr886   2.363       .  S
O256        H291   0.965       .  S
O257       Zr260   2.406       .  S
O257       Zr559   2.393       .  S
O257      Zr2773   2.392   1_455  S
O257        H294   0.964       .  S
O258       Zr261   2.404       .  S
O258      Zr3085   2.397   1_454  S
Zr259       O278   2.447       .  S
Zr259       O274   2.474       .  S
Zr259       O598   2.436       .  S
Zr259      O3073   2.388       .  S
Zr259      O2762   2.398       .  S
Zr259      O2139   2.366   1_545  S
Zr259      O2452   2.391   1_545  S
Zr259       O284   2.424       .  S
Zr260      O3393   2.476   1_455  S
Zr260       O890   2.402       .  S
Zr260      O2763   2.388   1_455  S
Zr260      O2775   2.434   1_455  S
Zr260       O896   2.419       .  S
Zr261      O3407   2.468   1_455  S
Zr261       O889   2.371       .  S
Zr261      O2764   2.397   1_455  S
Zr261      O2759   2.428   1_455  S
Zr261       O909   2.427       .  S
Zr262       O265   2.381       .  S
Zr262      O2439   2.363   1_544  S
Zr262      O2128   2.363   1_545  S
Zr262       O578   2.396   1_554  S
Zr262       O288   2.445       .  S
Zr262       O289   2.427       .  S
Zr262       O576   2.448   1_554  S
O263      Zr2757   2.428       .  S
O263        H300   0.988       .  S
O264       Zr574   2.448       .  S
O264        H309   0.988       .  S
O264        H607   0.990       .  S
O265      Zr3067   2.388   1_454  S
O265      Zr2133   2.371   1_545  S
O266      Zr2755   2.398   1_455  S
O266      Zr2132   2.402   1_545  S
O266       Zr574   2.397       .  S
O266        H292   0.962       .  S
O267       Zr277   2.378       .  S
O267       Zr883   2.366       .  S
O267      Zr2756   2.388       .  S
O268      Zr1195   2.391   1_554  S
O268      Zr2757   2.397       .  S
O268       Zr589   2.364   1_554  S
O268        H293   0.966       .  S
C269        O878   1.271       .  A
O272      Zr2132   2.418   1_545  S
O272        H308   0.990       .  S
O273      Zr4628   2.475   1_545  S
O273        C275   1.290       .  A
O274        C275   1.295       .  A
O276       Zr277   2.445       .  S
O276        H305   0.991       .  S
Zr277       O282   2.395       .  S
Zr277      O2753   2.392       .  S
Zr277      O3066   2.397       .  S
Zr277       O580   2.364       .  S
Zr277       O280   2.423       .  S
Zr277       O593   2.445       .  S
O278       C2155   1.286       .  A
O279      Zr2756   2.434       .  S
O279        H296   0.989       .  S
O279        H311   0.985       .  S
O280        H297   0.990       .  S
O281       Zr589   2.444   1_554  S
O281        H310   0.987       .  S
O281        H613   0.990       .  S
O282        C283   1.273       .  A
C283        C861   1.464       .  S
C283        O902   1.286       .  A
O284        H307   0.989       .  S
O284        H615   0.989       .  S
O285      Zr2133   2.428   1_545  S
O285        H299   0.989   1_545  S
O285        H306   0.989       .  S
O286       Zr571   2.435   1_554  S
O286        C290   1.287       .  A
O287      Zr4629   2.469   1_545  S
O287        C290   1.291       .  A
O288        H298   0.991       .  S
O289        H302   0.988       .  S
H295        O576   0.990   1_554  S
H301        O593   0.990       .  S
H303        O596   0.988   1_554  S
H312        O560   0.985       .  S
C313        N314   1.379       .  A
C313        N318   1.359       .  A
C313        C421   1.482       .  S
N314        C315   1.377       .  A
C315        N316   1.355       .  A
C315        C587   1.498       .  S
N316        C317   1.356       .  A
C317        N318   1.350       .  A
C317        C355   1.465       .  S
Zr319       O321   2.454       .  S
Zr319       O322   2.447       .  S
Zr319       O325   2.470       .  S
Zr319       O327   2.365       .  S
Zr319       O328   2.357       .  S
Zr319       O329   2.393       .  S
Zr319       O330   2.404       .  S
Zr319      O2192   2.392   1_545  S
O320       Zr943   2.392       .  S
O320        H376   0.984       .  S
O320        H384   0.984       .  S
O321        C341   1.285       .  A
O322        C343   1.288       .  A
O323       Zr333   2.459       .  S
O323        C342   1.286       .  A
O324       Zr332   2.467       .  S
O324        C343   1.291       .  A
O325        C342   1.294       .  A
O326       Zr334   2.394       .  S
O326        C341   1.271       .  A
O327       Zr332   2.408       .  S
O327       Zr334   2.362       .  S
O328       Zr333   2.397       .  S
O328       Zr334   2.363       .  S
O328        H363   0.965       .  S
O329       Zr332   2.405       .  S
O329       Zr349   2.393       .  S
O329        H366   0.964       .  S
O330       Zr333   2.403       .  S
O330       Zr349   2.397       .  S
Zr331       O350   2.447       .  S
Zr331       O358   2.439       .  S
Zr331       O346   2.473       .  S
Zr331       O337   2.388       .  S
Zr331       O338   2.399       .  S
Zr331       O339   2.367       .  S
Zr331       O340   2.391       .  S
Zr331       O356   2.424       .  S
Zr332       O345   2.473       .  S
Zr332       O338   2.402       .  S
Zr332       O339   2.389       .  S
Zr332       O351   2.434       .  S
Zr332       O344   2.418       .  S
Zr333       O359   2.472       .  S
Zr333       O337   2.372       .  S
Zr333       O340   2.398       .  S
Zr333       O335   2.429       .  S
Zr333       O357   2.427       .  S
Zr334       O337   2.381       .  S
Zr334       O338   2.395       .  S
Zr334       O360   2.444       .  S
Zr334       O361   2.425       .  S
Zr334       O336   2.448       .  S
O335        H372   0.988       .  S
O336        H367   0.990       .  S
O336        H381   0.988       .  S
O338        H364   0.962       .  S
O339       Zr349   2.377       .  S
O340       Zr349   2.363       .  S
O340        H365   0.966       .  S
C341        C389   1.467       .  S
C342        C555   1.498       .  S
C343        C463   1.482       .  S
O344        H380   0.990       .  S
O345        C347   1.290       .  A
O346        C347   1.294       .  A
C347        C551   1.496       .  S
O348       Zr973   2.444       .  S
O348        H377   0.991       .  S
Zr349       O354   2.396       .  S
Zr349      O2220   2.444       .  S
Zr349       O352   2.423       .  S
Zr349       O353   2.444       .  S
O350        C355   1.286       .  A
O351        H368   0.989       .  S
O351        H383   0.984       .  S
O352        H369   0.990       .  S
O353        H373   0.990       .  S
O353        H382   0.987       .  S
O354        C355   1.273       .  A
O356        H375   0.988       .  S
O356       H1003   0.989       .  S
O357        H371   0.989       .  S
O357        H378   0.989       .  S
O358        C362   1.288       .  A
O359        C362   1.292       .  A
O360        H370   0.991       .  S
O361        H374   0.988       .  S
C362        C391   1.483       .  S
H379       O2228   0.989       .  S
C385        N386   1.377       .  A
C385        N390   1.359       .  A
C385        C440   1.481       .  S
N386        C387   1.375       .  A
C387        N388   1.355       .  A
C387        C582   1.495       .  S
N388        C389   1.356       .  A
C389        N390   1.351       .  A
C391        N392   1.378       .  A
C391        N396   1.359       .  A
N392       C1017   1.376       .  A
C393       N2264   1.376   1_545  A
C393        N394   1.355   1_545  A
C393        C498   1.498       .  S
N394       C2267   1.356       .  A
C395       N1018   1.356       .  A
C395        N396   1.351       .  A
C395        C419   1.467       .  S
Zr397       O399   2.454       .  S
Zr397       O400   2.446       .  S
Zr397       O403   2.467       .  S
Zr397       O405   2.365       .  S
Zr397       O406   2.357       .  S
Zr397      O2903   2.393       .  S
Zr397      O2904   2.403       .  S
Zr397       O398   2.393       .  S
O398        H454   0.984       .  S
O398        H462   0.985       .  S
O399        C419   1.284       .  A
O400        C421   1.288       .  A
O401      Zr2907   2.454       .  S
O401        C420   1.286       .  A
O402      Zr2906   2.467       .  S
O402        C421   1.291       .  A
O403        C420   1.293       .  A
O404       Zr412   2.392       .  S
O404       C2291   1.271   1_545  A
O405      Zr2906   2.409       .  S
O405      Zr1036   2.363       .  S
O406      Zr2907   2.396       .  S
O406      Zr1036   2.363       .  S
O406        H441   0.965       .  S
O407      Zr2893   2.392   1_455  S
O407       Zr410   2.406       .  S
O407       Zr427   2.392       .  S
O407        H444   0.964       .  S
O408      Zr2893   2.404   1_455  S
O408       Zr411   2.404       .  S
O408       Zr427   2.397       .  S
Zr409       O428   2.447       .  S
Zr409       O436   2.436       .  S
Zr409       O424   2.474       .  S
Zr409       O415   2.388       .  S
Zr409       O416   2.398       .  S
Zr409      O2289   2.366   1_545  S
Zr409      O2290   2.390   1_545  S
Zr409       O434   2.424       .  S
Zr410      O2898   2.467   1_455  S
Zr410      O1047   2.475       .  S
Zr410      O2901   2.409   1_455  S
Zr410      O1040   2.402       .  S
Zr410       O417   2.388       .  S
Zr410       O429   2.433       .  S
Zr410      O3542   2.419   1_455  S
Zr411      O2897   2.454   1_455  S
Zr411      O1061   2.469       .  S
Zr411      O2902   2.396   1_455  S
Zr411      O1039   2.371       .  S
Zr411       O418   2.397       .  S
Zr411       O413   2.428       .  S
Zr411      O3555   2.427   1_455  S
Zr412      O2277   2.363   1_545  S
Zr412      O2278   2.363   1_545  S
Zr412      O2911   2.381       .  S
Zr412      O2912   2.396       .  S
Zr412       O438   2.445       .  S
Zr412       O439   2.427       .  S
Zr412       O414   2.448       .  S
O413        H450   0.988       .  S
O414        H445   0.990       .  S
O414        H459   0.988       .  S
O415      Zr2283   2.371   1_545  S
O415      Zr2908   2.382   1_455  S
O416      Zr2282   2.402   1_545  S
O416      Zr2908   2.396   1_455  S
O416        H442   0.962       .  S
O417      Zr1033   2.366       .  S
O417       Zr427   2.378       .  S
O418      Zr1033   2.390       .  S
O418       Zr427   2.364       .  S
O418        H443   0.966       .  S
C419       O1028   1.271       .  A
C420        C473   1.494       .  S
O422      Zr4778   2.419   1_545  S
O422        H458   0.990       .  S
O423      Zr2282   2.475   1_545  S
O423        C425   1.290       .  A
O424        C425   1.295       .  A
C425        C545   1.499       .  S
O426       Zr427   2.445       .  S
O426        H455   0.991       .  S
Zr427       O432   2.394       .  S
Zr427       O430   2.423       .  S
Zr427       O431   2.445       .  S
O428       C2305   1.286       .  A
O429        H446   0.989       .  S
O429        H461   0.985       .  S
O430        H447   0.990       .  S
O431        H451   0.990       .  S
O431        H460   0.987       .  S
O432        C433   1.273       .  A
C433       C1089   1.464       .  S
C433       O1052   1.286       .  A
O434        H453   0.988       .  S
O434        H457   0.989       .  S
O435      Zr4779   2.427   1_545  S
O435        H449   0.989   1_545  S
O435        H456   0.989       .  S
O436        C440   1.287       .  A
O437      Zr2283   2.470   1_545  S
O437        C440   1.291       .  A
O438        H448   0.991       .  S
O439        H452   0.988       .  S
C463        N464   1.359       .  A
C463       N2340   1.379   1_545  A
N464        C465   1.350       .  A
C465       N2338   1.355   1_545  A
C465       C2305   1.464       .  S
N466       C1089   1.355       .  A
N466        C467   1.355       .  A
C467        N468   1.376       .  A
C467        C503   1.497       .  S
N468       C1087   1.379       .  A
C469        N470   1.359       .  A
C469        N474   1.377       .  A
C469        C602   1.480       .  S
N470        C471   1.351       .  A
C471        N472   1.356       .  A
C471        C497   1.467       .  S
N472        C473   1.355       .  A
C473        N474   1.375       .  A
Zr475       O477   2.455       .  S
Zr475       O481   2.470       .  S
Zr475       O484   2.357       .  S
Zr475       O486   2.404       .  S
Zr475      O2348   2.391   1_545  S
O476      Zr1099   2.392       .  S
O476        H532   0.984       .  S
O477        C497   1.285       .  A
O478        C499   1.288       .  A
O479       Zr489   2.458       .  S
O479        C498   1.286       .  A
O480       Zr488   2.466       .  S
O480        C499   1.291       .  A
O481        C498   1.294       .  A
O482       Zr490   2.394       .  S
O482        C497   1.271       .  A
O483       Zr488   2.408       .  S
O484       Zr489   2.397       .  S
O484       Zr490   2.363       .  S
O484        H519   0.965       .  S
O485       Zr488   2.405       .  S
O485       Zr505   2.393       .  S
O485        H522   0.964       .  S
O486       Zr489   2.403       .  S
Zr487       O506   2.447       .  S
Zr487       O502   2.475       .  S
Zr487       O494   2.399       .  S
Zr487       O495   2.366       .  S
Zr487       O512   2.423       .  S
Zr488       O501   2.473       .  S
Zr488       O494   2.402       .  S
Zr488       O495   2.390       .  S
Zr488       O507   2.435       .  S
Zr488       O500   2.419       .  S
Zr489       O515   2.471       .  S
Zr489       O493   2.371       .  S
Zr489       O496   2.398       .  S
Zr489       O491   2.429       .  S
Zr489       O513   2.426       .  S
Zr490       O493   2.381       .  S
Zr490       O516   2.444       .  S
Zr490       O517   2.426       .  S
O491        H528   0.988       .  S
O492        H537   0.988       .  S
O494        H520   0.962       .  S
O495       Zr505   2.377       .  S
O496        H521   0.966       .  S
C499        C547   1.482       .  S
O500        H536   0.990       .  S
O501        C503   1.289       .  A
O502        C503   1.295       .  A
O504      Zr1129   2.445       .  S
O504        H533   0.991       .  S
Zr505       O510   2.397       .  S
Zr505      O2376   2.444       .  S
Zr505       O508   2.423       .  S
O506        C511   1.286       .  A
O507        H524   0.989       .  S
O507        H539   0.984       .  S
O508        H525   0.990       .  S
O509        H538   0.987       .  S
O510        C511   1.273       .  A
C511        C543   1.465       .  S
O512       H1159   0.989       .  S
O513        H527   0.989       .  S
O513        H534   0.989       .  S
O514        C518   1.288       .  A
O515        C518   1.291       .  A
O516        H526   0.990       .  S
O517        H530   0.988       .  S
C518        C553   1.482       .  S
H535       O2384   0.989       .  S
C541        N542   1.359       .  A
C541        N546   1.379       .  A
C541        C583   1.482       .  S
N542        C543   1.350       .  A
C543        N544   1.356       .  A
N544        C545   1.355       .  A
C545        N546   1.377       .  A
C547        N548   1.359       .  A
C547       N2424   1.379   1_545  A
N548        C549   1.350       .  A
C549       N2422   1.355   1_545  A
C549       C2467   1.464       .  S
N550       C1173   1.355       .  A
N550        C551   1.355       .  A
C551        N552   1.376       .  A
N552       C1171   1.379       .  A
C553        N554   1.378       .  A
C553        N558   1.359       .  A
N554       C1179   1.376       .  A
C555       N2426   1.376   1_545  A
C555        N556   1.355   1_545  A
N556       C2429   1.357       .  A
C557       N1180   1.356       .  A
C557        N558   1.351       .  A
C557        C581   1.467       .  S
Zr559       O561   2.454       .  S
Zr559       O565   2.468       .  S
Zr559       O568   2.357       .  S
Zr559       O570   2.403       .  S
Zr559       O560   2.393       .  S
O560        H616   0.984       .  S
O561        C581   1.284       .  A
O562        C583   1.288       .  A
O563       Zr573   2.455       .  S
O563        C582   1.286       .  A
O564       Zr572   2.466       .  S
O564        C583   1.291       .  A
O565        C582   1.293       .  A
O566       Zr574   2.393       .  S
O566       C2453   1.271   1_545  A
O567       Zr572   2.409       .  S
O567       Zr886   2.363   1_556  S
O568       Zr573   2.396       .  S
O568      Zr1198   2.363       .  S
O568        H603   0.965       .  S
O569       Zr572   2.406       .  S
O569      Zr3085   2.392   1_455  S
O569        H606   0.964       .  S
O570       Zr573   2.404       .  S
O570      Zr2773   2.397   1_455  S
Zr571       O590   2.447       .  S
Zr571       O586   2.473       .  S
Zr571      O2761   2.388   1_556  S
Zr571      O3074   2.398       .  S
Zr571      O2451   2.366   1_545  S
Zr571      O2140   2.391   1_546  S
Zr571       O596   2.425       .  S
Zr572      O3705   2.476   1_455  S
Zr572      O1202   2.402       .  S
Zr572      O3075   2.388   1_455  S
Zr572      O3087   2.433   1_455  S
Zr572      O1208   2.418       .  S
Zr573      O3719   2.468   1_455  S
Zr573      O1201   2.371       .  S
Zr573      O3076   2.397   1_455  S
Zr573      O3071   2.428   1_455  S
Zr573      O1221   2.427       .  S
Zr574      O2127   2.363   1_545  S
Zr574      O2440   2.363   1_545  S
Zr574       O577   2.382       .  S
Zr574       O600   2.445       .  S
Zr574       O601   2.427       .  S
O575      Zr3069   2.427       .  S
O575        H612   0.988       .  S
O576        H621   0.988       .  S
O577      Zr2755   2.388   1_455  S
O577      Zr2445   2.371   1_545  S
O578      Zr3067   2.398   1_455  S
O578      Zr2444   2.402   1_545  S
O578        H604   0.962       .  S
O579      Zr1195   2.366       .  S
O579      Zr3068   2.388       .  S
O579       Zr589   2.377       .  S
O580       Zr883   2.390       .  S
O580      Zr3069   2.397       .  S
O580        H605   0.966       .  S
C581       O1190   1.271       .  A
O584      Zr2444   2.418   1_545  S
O584        H620   0.990       .  S
O585      Zr4940   2.476   1_545  S
O585        C587   1.290       .  A
O586        C587   1.294       .  A
O588       Zr589   2.445       .  S
O588        H617   0.991       .  S
Zr589       O594   2.395       .  S
Zr589      O3065   2.392       .  S
Zr589      O2754   2.397   1_556  S
Zr589       O592   2.423       .  S
O590       C2467   1.286       .  A
O591      Zr3068   2.434       .  S
O591        H608   0.989       .  S
O591        H623   0.985       .  S
O592        H609   0.990       .  S
O593        H622   0.987       .  S
O594        C595   1.273       .  A
C595       C1173   1.464       .  S
C595       O1214   1.286       .  A
O596        H619   0.989       .  S
O597      Zr2445   2.427   1_545  S
O597        H611   0.989   1_545  S
O597        H618   0.989       .  S
O598        C602   1.287       .  A
O599      Zr4941   2.469   1_545  S
O599        C602   1.291       .  A
O600        H610   0.991       .  S
O601        H614   0.988       .  S
C625        N626   1.380       .  A
C625        N630   1.359       .  A
C625        C733   1.482       .  S
N626        C627   1.377       .  A
C627        N628   1.355       .  A
C627        C899   1.499       .  S
N628        C629   1.356       .  A
C629        N630   1.350       .  A
C629        C667   1.465       .  S
Zr631       O633   2.454       .  S
Zr631       O634   2.447       .  S
Zr631       O637   2.470       .  S
Zr631       O639   2.365       .  S
Zr631       O640   2.358       .  S
Zr631       O641   2.392       .  S
Zr631       O642   2.404       .  S
O632      Zr1255   2.392       .  S
O632        H688   0.984       .  S
O632        H696   0.984       .  S
O633        C653   1.285       .  A
O634        C655   1.288       .  A
O635       Zr645   2.458       .  S
O635        C654   1.286       .  A
O636       Zr644   2.466       .  S
O636        C655   1.291       .  A
O637        C654   1.294       .  A
O638       Zr646   2.394       .  S
O638        C653   1.271       .  A
O639       Zr644   2.408       .  S
O639       Zr646   2.362       .  S
O640       Zr645   2.397       .  S
O640       Zr646   2.363       .  S
O640        H675   0.965       .  S
O641       Zr644   2.405       .  S
O641       Zr661   2.393       .  S
O641        H678   0.964       .  S
O642       Zr645   2.403       .  S
O642       Zr661   2.397       .  S
Zr643       O662   2.448       .  S
Zr643       O670   2.440       .  S
Zr643       O658   2.474       .  S
Zr643       O649   2.387       .  S
Zr643       O650   2.399       .  S
Zr643       O651   2.367       .  S
Zr643       O652   2.391       .  S
Zr643       O668   2.424       .  S
Zr644       O657   2.473       .  S
Zr644       O650   2.402       .  S
Zr644       O651   2.390       .  S
Zr644       O663   2.434       .  S
Zr644       O656   2.420       .  S
Zr645       O671   2.472       .  S
Zr645       O649   2.371       .  S
Zr645       O652   2.398       .  S
Zr645       O647   2.429       .  S
Zr645       O669   2.427       .  S
Zr646       O649   2.381       .  S
Zr646       O650   2.395       .  S
Zr646       O672   2.444       .  S
Zr646       O673   2.425       .  S
Zr646       O648   2.448       .  S
O647        H684   0.988       .  S
O648        H679   0.990       .  S
O648        H693   0.988       .  S
O650        H676   0.962       .  S
O651       Zr661   2.377       .  S
O652       Zr661   2.363       .  S
O652        H677   0.966       .  S
C653        C701   1.467       .  S
C654        C867   1.498       .  S
C655        C775   1.482       .  S
O656        H692   0.990       .  S
O657        C659   1.290       .  A
O658        C659   1.294       .  A
C659        C863   1.497       .  S
O660      Zr1285   2.444       .  S
O660        H689   0.991       .  S
Zr661       O666   2.396       .  S
Zr661       O664   2.423       .  S
Zr661       O665   2.444       .  S
O662        C667   1.286       .  A
O663        H680   0.989       .  S
O663        H695   0.984       .  S
O664        H681   0.990       .  S
O665        H685   0.990       .  S
O665        H694   0.987       .  S
O666        C667   1.273       .  A
O668        H687   0.988       .  S
O668       H1315   0.989       .  S
O669        H683   0.989       .  S
O669        H690   0.989       .  S
O670        C674   1.288       .  A
O671        C674   1.292       .  A
O672        H682   0.991       .  S
O673        H686   0.988       .  S
C674        C703   1.483       .  S
C697        N698   1.377       .  A
C697        N702   1.358       .  A
C697        C752   1.480       .  S
N698        C699   1.375       .  A
C699        N700   1.355       .  A
C699        C894   1.495       .  S
N700        C701   1.356       .  A
C701        N702   1.351       .  A
C703        N704   1.378       .  A
C703        N708   1.359       .  A
N704       C1329   1.376       .  A
C705        N706   1.355       .  A
C705        C810   1.498       .  S
C707       N1330   1.356       .  A
C707        N708   1.351       .  A
C707        C731   1.467       .  S
Zr709       O711   2.453       .  S
Zr709       O712   2.446       .  S
Zr709       O715   2.468       .  S
Zr709       O717   2.365       .  S
Zr709       O718   2.357       .  S
Zr709      O3215   2.393       .  S
Zr709      O3216   2.403       .  S
Zr709       O710   2.393       .  S
O710        H766   0.984       .  S
O710        H774   0.985       .  S
O711        C731   1.284       .  A
O712        C733   1.288       .  A
O713      Zr3219   2.455       .  S
O713        C732   1.286       .  A
O714      Zr3218   2.467       .  S
O714        C733   1.291       .  A
O715        C732   1.293       .  A
O716       Zr724   2.393       .  S
O717      Zr3218   2.409       .  S
O717      Zr1348   2.363       .  S
O718      Zr3219   2.396       .  S
O718      Zr1348   2.363       .  S
O718        H753   0.965       .  S
O719      Zr3205   2.393   1_455  S
O719       Zr722   2.406       .  S
O719       Zr739   2.392       .  S
O719        H756   0.964       .  S
O720      Zr3205   2.404   1_455  S
O720       Zr723   2.404       .  S
O720       Zr739   2.397       .  S
Zr721       O740   2.447       .  S
Zr721       O748   2.436       .  S
Zr721       O736   2.473       .  S
Zr721       O727   2.388       .  S
Zr721       O728   2.398       .  S
Zr721       O746   2.424       .  S
Zr722      O3210   2.467   1_455  S
Zr722      O1359   2.476       .  S
Zr722      O3213   2.409   1_455  S
Zr722      O1352   2.402       .  S
Zr722       O729   2.388       .  S
Zr722       O741   2.434       .  S
Zr722      O3854   2.419   1_455  S
Zr723      O3209   2.454   1_455  S
Zr723      O1373   2.469       .  S
Zr723      O3214   2.397   1_455  S
Zr723      O1351   2.371       .  S
Zr723       O730   2.397       .  S
Zr723       O725   2.428       .  S
Zr723      O3867   2.427   1_455  S
Zr724      O3223   2.381       .  S
Zr724      O3224   2.396       .  S
Zr724       O750   2.445       .  S
Zr724       O751   2.428       .  S
Zr724       O726   2.448       .  S
O725        H762   0.988       .  S
O726        H757   0.990       .  S
O726        H771   0.988       .  S
O727      Zr3220   2.381   1_455  S
O728      Zr3220   2.396   1_455  S
O728        H754   0.962       .  S
O729      Zr1345   2.367       .  S
O729       Zr739   2.378       .  S
O730      Zr1345   2.390       .  S
O730       Zr739   2.364       .  S
O730        H755   0.966       .  S
C731       O1340   1.271       .  A
C732        C785   1.495       .  S
O734      Zr2594   2.419       .  S
O734        H770   0.990       .  S
O735        C737   1.290       .  A
O736        C737   1.294       .  A
C737        C857   1.498       .  S
O738       Zr739   2.445       .  S
O738        H767   0.991       .  S
Zr739       O744   2.395       .  S
Zr739       O742   2.423       .  S
Zr739       O743   2.445       .  S
O741        H758   0.989       .  S
O741        H773   0.985       .  S
O742        H759   0.990       .  S
O743        H763   0.990       .  S
O743        H772   0.987       .  S
O744        C745   1.273       .  A
C745       C1401   1.464       .  S
C745       O1364   1.286       .  A
O746        H765   0.988       .  S
O746        H769   0.989       .  S
O747      Zr2595   2.427       .  S
O747        H761   0.989       .  S
O747        H768   0.989       .  S
O748        C752   1.287       .  A
O749        C752   1.291       .  A
O750        H760   0.991       .  S
O751        H764   0.988       .  S
C775        N776   1.359       .  A
N776        C777   1.350       .  A
N778       C1401   1.355       .  A
N778        C779   1.355       .  A
C779        N780   1.377       .  A
C779        C815   1.497       .  S
N780       C1399   1.379       .  A
C781        N782   1.359       .  A
C781        N786   1.377       .  A
C781        C914   1.480       .  S
N782        C783   1.351       .  A
C783        N784   1.356       .  A
C783        C809   1.467       .  S
N784        C785   1.355       .  A
C785        N786   1.375       .  A
Zr787       O789   2.454       .  S
Zr787      O1102   2.446   1_554  S
Zr787       O793   2.470       .  S
Zr787      O1107   2.364   1_554  S
Zr787       O796   2.357       .  S
Zr787      O1109   2.393   1_554  S
Zr787       O798   2.404       .  S
O788      Zr1411   2.392       .  S
O788        H844   0.984       .  S
O788       H1164   0.984       .  S
O789        C809   1.285       .  A
O790      Zr1099   2.447       .  S
O790        C811   1.288       .  A
O791       Zr801   2.458       .  S
O791        C810   1.286       .  A
O792       Zr800   2.466       .  S
O792        C811   1.291       .  A
O793        C810   1.294       .  A
O794       Zr802   2.394       .  S
O794        C809   1.271       .  A
O795      Zr1099   2.365       .  S
O795       Zr800   2.408       .  S
O795      Zr1114   2.362       .  S
O796       Zr801   2.397       .  S
O796       Zr802   2.363       .  S
O796        H831   0.965       .  S
O797      Zr1099   2.393       .  S
O797       Zr800   2.405       .  S
O797       Zr817   2.393       .  S
O797        H834   0.964       .  S
O798       Zr801   2.403       .  S
O798      Zr1129   2.398   1_554  S
Zr799       O818   2.447       .  S
Zr799      O1138   2.440       .  S
Zr799       O814   2.474       .  S
Zr799      O1117   2.387       .  S
Zr799       O806   2.399       .  S
Zr799       O807   2.367       .  S
Zr799      O1120   2.391       .  S
Zr799       O824   2.424       .  S
Zr800       O813   2.472       .  S
Zr800       O806   2.402       .  S
Zr800       O807   2.389       .  S
Zr800       O819   2.434       .  S
Zr800       O812   2.418       .  S
Zr801       O827   2.471       .  S
Zr801       O805   2.372       .  S
Zr801       O808   2.398       .  S
Zr801       O803   2.429       .  S
Zr801       O825   2.427       .  S
Zr802      O1107   2.362   1_554  S
Zr802       O805   2.381       .  S
Zr802      O1118   2.396   1_554  S
Zr802       O828   2.444       .  S
Zr802       O829   2.426       .  S
Zr802      O1116   2.448   1_554  S
O803        H840   0.988       .  S
O804      Zr1114   2.448       .  S
O804       H1147   0.990       .  S
O804        H849   0.988       .  S
O805      Zr1111   2.388   1_554  S
O806      Zr1114   2.395       .  S
O806        H832   0.962       .  S
O807       Zr817   2.377       .  S
O808      Zr1111   2.391   1_554  S
O808      Zr1129   2.363   1_554  S
O808        H833   0.966       .  S
C811        C859   1.482       .  S
O812        H848   0.990       .  S
O813        C815   1.289       .  A
O814        C815   1.295       .  A
O816      Zr1441   2.444       .  S
O816        H845   0.991       .  S
Zr817       O822   2.396       .  S
Zr817      O1110   2.398       .  S
Zr817      O1120   2.363       .  S
Zr817       O820   2.423       .  S
Zr817      O1133   2.444       .  S
O818        C823   1.286       .  A
O819        H836   0.989       .  S
O819        H851   0.984       .  S
O820        H837   0.990       .  S
O821      Zr1129   2.444   1_554  S
O821       H1153   0.990       .  S
O821        H850   0.987       .  S
O822        C823   1.273       .  A
C823        C855   1.465       .  S
O824       H1155   0.988       .  S
O824       H1471   0.989       .  S
O825        H839   0.989       .  S
O825        H846   0.989       .  S
O826      Zr1111   2.440   1_554  S
O826        C830   1.288       .  A
O827        C830   1.291       .  A
O828        H838   0.990       .  S
O829        H842   0.988       .  S
C830        C865   1.482       .  S
H835       O1116   0.990   1_554  S
H841       O1133   0.990       .  S
H843       O1136   0.988   1_554  S
H852       O1100   0.984       .  S
C853        N854   1.359       .  A
C853        N858   1.379       .  A
C853        C895   1.482       .  S
N854        C855   1.350       .  A
C855        N856   1.356       .  A
N856        C857   1.355       .  A
C857        N858   1.377       .  A
C859        N860   1.359       .  A
N860        C861   1.350       .  A
N862       C1485   1.355       .  A
N862        C863   1.355       .  A
C863        N864   1.376       .  A
N864       C1483   1.379       .  A
C865        N866   1.378       .  A
C865        N870   1.359       .  A
N866       C1491   1.376       .  A
C867        N868   1.355       .  A
C869       N1492   1.356       .  A
C869        N870   1.351       .  A
C869        C893   1.467       .  S
Zr871       O873   2.454       .  S
Zr871      O1186   2.446   1_554  S
Zr871       O877   2.468       .  S
Zr871      O1191   2.365   1_554  S
Zr871       O880   2.357       .  S
Zr871      O1193   2.393   1_554  S
Zr871       O882   2.403       .  S
Zr871       O872   2.393       .  S
O872        H928   0.984       .  S
O872       H1248   0.985       .  S
O873        C893   1.285       .  A
O874      Zr1183   2.445       .  S
O874        C895   1.288       .  A
O875       Zr885   2.454       .  S
O875        C894   1.285       .  A
O876       Zr884   2.467       .  S
O876        C895   1.291       .  A
O877        C894   1.293       .  A
O878       Zr886   2.393       .  S
O879      Zr1183   2.365       .  S
O879       Zr884   2.409       .  S
O879      Zr1822   2.363       .  S
O880       Zr885   2.396       .  S
O880      Zr1510   2.363       .  S
O880        H915   0.965       .  S
O881      Zr1183   2.393       .  S
O881       Zr884   2.406       .  S
O881      Zr3397   2.392   1_455  S
O881        H918   0.964       .  S
O882       Zr885   2.404       .  S
O882      Zr3709   2.397   1_454  S
Zr883       O902   2.447       .  S
Zr883      O1222   2.436       .  S
Zr883       O898   2.474       .  S
Zr883      O3697   2.388       .  S
Zr883      O3386   2.398       .  S
Zr883       O908   2.424       .  S
Zr884      O4017   2.476   1_455  S
Zr884      O1514   2.402       .  S
Zr884      O3387   2.388   1_455  S
Zr884      O3399   2.434   1_455  S
Zr884      O1520   2.419       .  S
Zr885      O4031   2.468   1_455  S
Zr885      O1513   2.371       .  S
Zr885      O3388   2.397   1_455  S
Zr885      O3383   2.427   1_455  S
Zr885      O1533   2.427       .  S
Zr886       O889   2.381       .  S
Zr886      O1202   2.396   1_554  S
Zr886       O912   2.445       .  S
Zr886       O913   2.427       .  S
Zr886      O1200   2.448   1_554  S
O887      Zr3381   2.428       .  S
O887        H924   0.988       .  S
O888      Zr1198   2.449       .  S
O888       H1231   0.990       .  S
O888        H933   0.988       .  S
O889      Zr3691   2.388   1_454  S
O890      Zr3379   2.398   1_455  S
O890      Zr1198   2.397       .  S
O890        H916   0.962       .  S
O891      Zr1507   2.366       .  S
O891      Zr3380   2.388       .  S
O891       Zr901   2.378       .  S
O892      Zr1819   2.390   1_554  S
O892      Zr3381   2.397       .  S
O892      Zr1213   2.364   1_554  S
O892        H917   0.966       .  S
C893       O1502   1.271       .  A
O896        H932   0.990       .  S
O897      Zr2756   2.476       .  S
O897        C899   1.290       .  A
O898        C899   1.295       .  A
O900       Zr901   2.445       .  S
O900        H929   0.991       .  S
Zr901       O906   2.396       .  S
Zr901      O3377   2.392       .  S
Zr901      O3690   2.397       .  S
Zr901      O1204   2.364       .  S
Zr901       O904   2.423       .  S
Zr901      O1217   2.445       .  S
O903      Zr3380   2.434       .  S
O903        H920   0.989       .  S
O903        H935   0.985       .  S
O904        H921   0.990       .  S
O905      Zr1213   2.445   1_554  S
O905       H1237   0.990       .  S
O905        H934   0.987       .  S
O906        C907   1.274       .  A
C907       C1485   1.464       .  S
C907       O1526   1.286       .  A
O908       H1239   0.989       .  S
O908        H931   0.989       .  S
O909        H923   0.989       .  S
O909        H930   0.989       .  S
O910      Zr1195   2.435   1_554  S
O910        C914   1.287       .  A
O911      Zr2757   2.469       .  S
O911        C914   1.291       .  A
O912        H922   0.991       .  S
O913        H926   0.988       .  S
H919       O1200   0.990   1_554  S
H925       O1217   0.990       .  S
H927       O1220   0.988   1_554  S
H936       O1184   0.985       .  S
C937        N938   1.379       .  A
C937        N942   1.359       .  A
C937       C1045   1.482       .  S
N938        C939   1.377       .  A
C939        N940   1.355       .  A
C939       C1211   1.499       .  S
N940        C941   1.356       .  A
C941        N942   1.350       .  A
C941        C979   1.465       .  S
Zr943       O945   2.454       .  S
Zr943       O946   2.446       .  S
Zr943       O949   2.469       .  S
Zr943       O951   2.364       .  S
Zr943       O952   2.357       .  S
Zr943       O953   2.393       .  S
Zr943       O954   2.404       .  S
O944      Zr1567   2.392       .  S
O944       H1000   0.984       .  S
O944       H1008   0.984       .  S
O945        C965   1.285       .  A
O946        C967   1.288       .  A
O947       Zr957   2.459       .  S
O947        C966   1.286       .  A
O948       Zr956   2.467       .  S
O948        C967   1.291       .  A
O949        C966   1.294       .  A
O950       Zr958   2.393       .  S
O950        C965   1.271       .  A
O951       Zr956   2.408       .  S
O951       Zr958   2.362       .  S
O952       Zr957   2.397       .  S
O952       Zr958   2.363       .  S
O952        H987   0.965       .  S
O953       Zr956   2.405       .  S
O953       Zr973   2.393       .  S
O953        H990   0.964       .  S
O954       Zr957   2.403       .  S
O954       Zr973   2.398       .  S
Zr955       O974   2.447       .  S
Zr955       O982   2.439       .  S
Zr955       O970   2.474       .  S
Zr955       O961   2.388       .  S
Zr955       O962   2.399       .  S
Zr955       O963   2.367       .  S
Zr955       O964   2.391       .  S
Zr955       O980   2.424       .  S
Zr956       O969   2.473       .  S
Zr956       O962   2.402       .  S
Zr956       O963   2.389       .  S
Zr956       O975   2.434       .  S
Zr956       O968   2.418       .  S
Zr957       O983   2.471       .  S
Zr957       O961   2.372       .  S
Zr957       O964   2.398       .  S
Zr957       O959   2.429       .  S
Zr957       O981   2.427       .  S
Zr958       O961   2.381       .  S
Zr958       O962   2.395       .  S
Zr958       O984   2.444       .  S
Zr958       O985   2.425       .  S
Zr958       O960   2.448       .  S
O959        H996   0.988       .  S
O960        H991   0.990       .  S
O960       H1005   0.988       .  S
O962        H988   0.962       .  S
O963       Zr973   2.377       .  S
O964       Zr973   2.362       .  S
O964        H989   0.966       .  S
C965       C1013   1.467       .  S
C966       C1179   1.498       .  S
C967       C1087   1.482       .  S
O968       H1004   0.990       .  S
O969        C971   1.290       .  A
O970        C971   1.294       .  A
C971       C1175   1.497       .  S
O972      Zr1597   2.444       .  S
O972       H1001   0.991       .  S
Zr973       O978   2.396       .  S
Zr973       O976   2.423       .  S
Zr973       O977   2.444       .  S
O974        C979   1.286       .  A
O975        H992   0.989       .  S
O975       H1007   0.984       .  S
O976        H993   0.990       .  S
O977        H997   0.990       .  S
O977       H1006   0.987       .  S
O978        C979   1.273       .  A
O980        H999   0.988       .  S
O980       H1627   0.989       .  S
O981        H995   0.989       .  S
O981       H1002   0.989       .  S
O982        C986   1.288       .  A
O983        C986   1.292       .  A
O984        H994   0.991       .  S
O985        H998   0.988       .  S
C986       C1015   1.482       .  S
C1009      N1010   1.377       .  A
C1009      N1014   1.359       .  A
C1009      C1064   1.480       .  S
N1010      C1011   1.375       .  A
C1011      N1012   1.355       .  A
C1011      C1206   1.495       .  S
N1012      C1013   1.356       .  A
C1013      N1014   1.351       .  A
C1015      N1016   1.378       .  A
C1015      N1020   1.359       .  A
N1016      C1641   1.376       .  A
C1017      N1018   1.355       .  A
C1017      C1122   1.498       .  S
C1019      N1642   1.356       .  A
C1019      N1020   1.351       .  A
C1019      C1043   1.467       .  S
Zr1021     O1023   2.454       .  S
Zr1021     O1024   2.445       .  S
Zr1021     O1027   2.467       .  S
Zr1021     O1029   2.365       .  S
Zr1021     O1030   2.357       .  S
Zr1021     O3527   2.393       .  S
Zr1021     O3528   2.403       .  S
Zr1021     O1022   2.394       .  S
O1022      H1078   0.985       .  S
O1022      H1086   0.985       .  S
O1023      C1043   1.284       .  A
O1024      C1045   1.288       .  A
O1025     Zr3531   2.454       .  S
O1025      C1044   1.286       .  A
O1026     Zr3530   2.467       .  S
O1026      C1045   1.291       .  A
O1027      C1044   1.293       .  A
O1028     Zr1036   2.392       .  S
O1029     Zr3530   2.409       .  S
O1029     Zr1660   2.363       .  S
O1030     Zr3531   2.396       .  S
O1030     Zr1660   2.363       .  S
O1030      H1065   0.965       .  S
O1031     Zr3517   2.393   1_455  S
O1031     Zr1034   2.406       .  S
O1031     Zr1051   2.392       .  S
O1031      H1068   0.964       .  S
O1032     Zr3517   2.404   1_455  S
O1032     Zr1035   2.404       .  S
O1032     Zr1051   2.397       .  S
Zr1033     O1052   2.447       .  S
Zr1033     O1060   2.436       .  S
Zr1033     O1048   2.474       .  S
Zr1033     O1039   2.389       .  S
Zr1033     O1040   2.398       .  S
Zr1033     O1058   2.424       .  S
Zr1034     O3522   2.466   1_455  S
Zr1034     O1671   2.475       .  S
Zr1034     O3525   2.409   1_455  S
Zr1034     O1664   2.402       .  S
Zr1034     O1041   2.388       .  S
Zr1034     O1053   2.433       .  S
Zr1034     O4166   2.419   1_455  S
Zr1035     O3521   2.454   1_455  S
Zr1035     O1685   2.469       .  S
Zr1035     O3526   2.397   1_455  S
Zr1035     O1663   2.371       .  S
Zr1035     O1042   2.397       .  S
Zr1035     O1037   2.428       .  S
Zr1035     O4179   2.427   1_455  S
Zr1036     O3535   2.381       .  S
Zr1036     O3536   2.396       .  S
Zr1036     O1062   2.445       .  S
Zr1036     O1063   2.427       .  S
Zr1036     O1038   2.448       .  S
O1037      H1074   0.988       .  S
O1038      H1069   0.990       .  S
O1038      H1083   0.988       .  S
O1039     Zr3532   2.382   1_455  S
O1040     Zr3532   2.396   1_455  S
O1040      H1066   0.962       .  S
O1041     Zr1657   2.367       .  S
O1041     Zr1051   2.378       .  S
O1042     Zr1657   2.391       .  S
O1042     Zr1051   2.364       .  S
O1042      H1067   0.966       .  S
C1043      O1652   1.271       .  A
C1044      C1097   1.495       .  S
O1046     Zr2906   2.419       .  S
O1046      H1082   0.990       .  S
O1047      C1049   1.290       .  A
O1048      C1049   1.295       .  A
C1049      C1169   1.499       .  S
O1050     Zr1051   2.445       .  S
O1050      H1079   0.991       .  S
Zr1051     O1056   2.394       .  S
Zr1051     O1054   2.423       .  S
Zr1051     O1055   2.445       .  S
O1053      H1070   0.989       .  S
O1053      H1085   0.984       .  S
O1054      H1071   0.990       .  S
O1055      H1075   0.990       .  S
O1055      H1084   0.987       .  S
O1056      C1057   1.273       .  A
C1057      C1713   1.464       .  S
C1057      O1676   1.286       .  A
O1058      H1077   0.988       .  S
O1058      H1081   0.989       .  S
O1059     Zr2907   2.427       .  S
O1059      H1073   0.989       .  S
O1059      H1080   0.989       .  S
O1060      C1064   1.287       .  A
O1061      C1064   1.291       .  A
O1062      H1072   0.991       .  S
O1063      H1076   0.988       .  S
C1087      N1088   1.359       .  A
N1088      C1089   1.350       .  A
N1090      C1713   1.355       .  A
N1090      C1091   1.355       .  A
C1091      N1092   1.376       .  A
C1091      C1127   1.497       .  S
N1092      C1711   1.379       .  A
C1093      N1094   1.359       .  A
C1093      N1098   1.377       .  A
C1093      C1226   1.480       .  S
N1094      C1095   1.351       .  A
C1095      N1096   1.356       .  A
C1095      C1121   1.467       .  S
N1096      C1097   1.355       .  A
C1097      N1098   1.375       .  A
Zr1099     O1101   2.454       .  S
Zr1099     O1105   2.470       .  S
Zr1099     O1108   2.357       .  S
Zr1099     O1110   2.404       .  S
O1100     Zr1723   2.392       .  S
O1100      H1156   0.984       .  S
O1101      C1121   1.285       .  A
O1102      C1123   1.288       .  A
O1103     Zr1113   2.458       .  S
O1103      C1122   1.286       .  A
O1104     Zr1112   2.466       .  S
O1104      C1123   1.291       .  A
O1105      C1122   1.294       .  A
O1106     Zr1114   2.394       .  S
O1106      C1121   1.271       .  A
O1107     Zr1112   2.408       .  S
O1108     Zr1113   2.397       .  S
O1108     Zr1114   2.363       .  S
O1108      H1143   0.965       .  S
O1109     Zr1112   2.405       .  S
O1109     Zr1129   2.393       .  S
O1109      H1146   0.964       .  S
O1110     Zr1113   2.403       .  S
Zr1111     O1130   2.447       .  S
Zr1111     O1126   2.475       .  S
Zr1111     O1118   2.399       .  S
Zr1111     O1119   2.366       .  S
Zr1111     O1136   2.423       .  S
Zr1112     O1125   2.472       .  S
Zr1112     O1118   2.402       .  S
Zr1112     O1119   2.389       .  S
Zr1112     O1131   2.434       .  S
Zr1112     O1124   2.419       .  S
Zr1113     O1139   2.471       .  S
Zr1113     O1117   2.371       .  S
Zr1113     O1120   2.398       .  S
Zr1113     O1115   2.429       .  S
Zr1113     O1137   2.427       .  S
Zr1114     O1117   2.380       .  S
Zr1114     O1140   2.444       .  S
Zr1114     O1141   2.426       .  S
O1115      H1152   0.988       .  S
O1116      H1161   0.988       .  S
O1118      H1144   0.962       .  S
O1119     Zr1129   2.377       .  S
O1120      H1145   0.966       .  S
C1123      C1171   1.482       .  S
O1124      H1160   0.990       .  S
O1125      C1127   1.289       .  A
O1126      C1127   1.295       .  A
O1128     Zr1753   2.444       .  S
O1128      H1157   0.991       .  S
Zr1129     O1134   2.397       .  S
Zr1129     O1132   2.423       .  S
O1130      C1135   1.286       .  A
O1131      H1148   0.989       .  S
O1131      H1163   0.984       .  S
O1132      H1149   0.990       .  S
O1133      H1162   0.987       .  S
O1134      C1135   1.273       .  A
C1135      C1167   1.465       .  S
O1136      H1783   0.989       .  S
O1137      H1151   0.989       .  S
O1137      H1158   0.989       .  S
O1138      C1142   1.288       .  A
O1139      C1142   1.292       .  A
O1140      H1150   0.990       .  S
O1141      H1154   0.988       .  S
C1142      C1177   1.483       .  S
C1165      N1166   1.359       .  A
C1165      N1170   1.379       .  A
C1165      C1207   1.482       .  S
N1166      C1167   1.350       .  A
C1167      N1168   1.356       .  A
N1168      C1169   1.355       .  A
C1169      N1170   1.377       .  A
C1171      N1172   1.359       .  A
N1172      C1173   1.350       .  A
N1174      C1797   1.355       .  A
N1174      C1175   1.355       .  A
C1175      N1176   1.376       .  A
N1176      C1795   1.379       .  A
C1177      N1178   1.378       .  A
C1177      N1182   1.359       .  A
N1178      C1803   1.376       .  A
C1179      N1180   1.355       .  A
C1181      N1804   1.357       .  A
C1181      N1182   1.351       .  A
C1181      C1205   1.467       .  S
Zr1183     O1185   2.454       .  S
Zr1183     O1189   2.467       .  S
Zr1183     O1192   2.357       .  S
Zr1183     O1194   2.403       .  S
Zr1183     O1184   2.393       .  S
O1184      H1240   0.984       .  S
O1185      C1205   1.284       .  A
O1186      C1207   1.288       .  A
O1187     Zr1197   2.454       .  S
O1187      C1206   1.286       .  A
O1188     Zr1196   2.467       .  S
O1188      C1207   1.291       .  A
O1189      C1206   1.293       .  A
O1190     Zr1198   2.393       .  S
O1191     Zr1196   2.409       .  S
O1191     Zr1510   2.363   1_556  S
O1192     Zr1197   2.396       .  S
O1192     Zr1822   2.363       .  S
O1192      H1227   0.965       .  S
O1193     Zr1196   2.406       .  S
O1193     Zr3709   2.392   1_455  S
O1193      H1230   0.964       .  S
O1194     Zr1197   2.403       .  S
O1194     Zr3397   2.397   1_455  S
Zr1195     O1214   2.447       .  S
Zr1195     O1210   2.473       .  S
Zr1195     O3385   2.388   1_556  S
Zr1195     O3698   2.398       .  S
Zr1195     O1220   2.424       .  S
Zr1196     O4329   2.476   1_455  S
Zr1196     O1826   2.402       .  S
Zr1196     O3699   2.388   1_455  S
Zr1196     O3711   2.434   1_455  S
Zr1196     O1832   2.418       .  S
Zr1197     O4343   2.468   1_455  S
Zr1197     O1825   2.371       .  S
Zr1197     O3700   2.397   1_455  S
Zr1197     O3695   2.428   1_455  S
Zr1197     O1845   2.427       .  S
Zr1198     O1201   2.382       .  S
Zr1198     O1224   2.445       .  S
Zr1198     O1225   2.427       .  S
O1199     Zr3693   2.427       .  S
O1199      H1236   0.988       .  S
O1200      H1245   0.988       .  S
O1201     Zr3379   2.388   1_455  S
O1202     Zr3691   2.398   1_455  S
O1202      H1228   0.962       .  S
O1203     Zr1819   2.366       .  S
O1203     Zr3692   2.388       .  S
O1203     Zr1213   2.378       .  S
O1204     Zr1507   2.390       .  S
O1204     Zr3693   2.397       .  S
O1204      H1229   0.966       .  S
C1205      O1814   1.271       .  A
O1208      H1244   0.990       .  S
O1209     Zr3068   2.476       .  S
O1209      C1211   1.290       .  A
O1210      C1211   1.294       .  A
O1212     Zr1213   2.445       .  S
O1212      H1241   0.991       .  S
Zr1213     O1218   2.395       .  S
Zr1213     O3689   2.391       .  S
Zr1213     O3378   2.397   1_556  S
Zr1213     O1216   2.423       .  S
O1215     Zr3692   2.434       .  S
O1215      H1232   0.989       .  S
O1215      H1247   0.985       .  S
O1216      H1233   0.990       .  S
O1217      H1246   0.987       .  S
O1218      C1219   1.273       .  A
C1219      C1797   1.464       .  S
C1219      O1838   1.286       .  A
O1220      H1243   0.989       .  S
O1221      H1235   0.989       .  S
O1221      H1242   0.989       .  S
O1222      C1226   1.287       .  A
O1223     Zr3069   2.469       .  S
O1223      C1226   1.291       .  A
O1224      H1234   0.991       .  S
O1225      H1238   0.988       .  S
C1249      N1250   1.380       .  A
C1249      N1254   1.359       .  A
C1249      C1357   1.482       .  S
N1250      C1251   1.377       .  A
C1251      N1252   1.355       .  A
C1251      C1523   1.499       .  S
N1252      C1253   1.356       .  A
C1253      N1254   1.350       .  A
C1253      C1291   1.465       .  S
Zr1255     O1257   2.455       .  S
Zr1255     O1258   2.447       .  S
Zr1255     O1261   2.470       .  S
Zr1255     O1263   2.365       .  S
Zr1255     O1264   2.357       .  S
Zr1255     O1265   2.393       .  S
Zr1255     O1266   2.404       .  S
O1256     Zr1879   2.392       .  S
O1256      H1312   0.984       .  S
O1256      H1320   0.984       .  S
O1257      C1277   1.285       .  A
O1258      C1279   1.288       .  A
O1259     Zr1269   2.458       .  S
O1259      C1278   1.286       .  A
O1260     Zr1268   2.466       .  S
O1260      C1279   1.291       .  A
O1261      C1278   1.294       .  A
O1262     Zr1270   2.394       .  S
O1262      C1277   1.271       .  A
O1263     Zr1268   2.408       .  S
O1263     Zr1270   2.362       .  S
O1264     Zr1269   2.397       .  S
O1264     Zr1270   2.363       .  S
O1264      H1299   0.965       .  S
O1265     Zr1268   2.406       .  S
O1265     Zr1285   2.393       .  S
O1265      H1302   0.964       .  S
O1266     Zr1269   2.403       .  S
O1266     Zr1285   2.398       .  S
Zr1267     O1286   2.447       .  S
Zr1267     O1294   2.440       .  S
Zr1267     O1282   2.474       .  S
Zr1267     O1273   2.388       .  S
Zr1267     O1274   2.399       .  S
Zr1267     O1275   2.367       .  S
Zr1267     O1276   2.390       .  S
Zr1267     O1292   2.424       .  S
Zr1268     O1281   2.473       .  S
Zr1268     O1274   2.402       .  S
Zr1268     O1275   2.389       .  S
Zr1268     O1287   2.434       .  S
Zr1268     O1280   2.419       .  S
Zr1269     O1295   2.472       .  S
Zr1269     O1273   2.371       .  S
Zr1269     O1276   2.398       .  S
Zr1269     O1271   2.429       .  S
Zr1269     O1293   2.427       .  S
Zr1270     O1273   2.381       .  S
Zr1270     O1274   2.395       .  S
Zr1270     O1296   2.444       .  S
Zr1270     O1297   2.425       .  S
Zr1270     O1272   2.448       .  S
O1271      H1308   0.988       .  S
O1272      H1303   0.990       .  S
O1272      H1317   0.988       .  S
O1274      H1300   0.962       .  S
O1275     Zr1285   2.377       .  S
O1276     Zr1285   2.363       .  S
O1276      H1301   0.966       .  S
C1277      C1325   1.467       .  S
C1278      C1491   1.498       .  S
C1279      C1399   1.482       .  S
O1280      H1316   0.990       .  S
O1281      C1283   1.290       .  A
O1282      C1283   1.294       .  A
C1283      C1487   1.497       .  S
O1284     Zr1909   2.445       .  S
O1284      H1313   0.991       .  S
Zr1285     O1290   2.396       .  S
Zr1285     O1288   2.423       .  S
Zr1285     O1289   2.444       .  S
O1286      C1291   1.286       .  A
O1287      H1304   0.989       .  S
O1287      H1319   0.984       .  S
O1288      H1305   0.990       .  S
O1289      H1309   0.990       .  S
O1289      H1318   0.987       .  S
O1290      C1291   1.273       .  A
O1292      H1311   0.988       .  S
O1292      H1939   0.989       .  S
O1293      H1307   0.989       .  S
O1293      H1314   0.989       .  S
O1294      C1298   1.288       .  A
O1295      C1298   1.292       .  A
O1296      H1306   0.991       .  S
O1297      H1310   0.988       .  S
C1298      C1327   1.483       .  S
C1321      N1322   1.377       .  A
C1321      N1326   1.359       .  A
C1321      C1376   1.480       .  S
N1322      C1323   1.375       .  A
C1323      N1324   1.355       .  A
C1323      C1518   1.495       .  S
N1324      C1325   1.356       .  A
C1325      N1326   1.351       .  A
C1327      N1328   1.378       .  A
C1327      N1332   1.359       .  A
N1328      C1953   1.376       .  A
C1329      N1330   1.355       .  A
C1329      C1434   1.498       .  S
C1331      N1954   1.356       .  A
C1331      N1332   1.351       .  A
C1331      C1355   1.467       .  S
Zr1333     O1335   2.454       .  S
Zr1333     O1336   2.447       .  S
Zr1333     O1339   2.468       .  S
Zr1333     O1341   2.365       .  S
Zr1333     O1342   2.357       .  S
Zr1333     O3839   2.393       .  S
Zr1333     O3840   2.404       .  S
Zr1333     O1334   2.393       .  S
O1334      H1390   0.984       .  S
O1334      H1398   0.985       .  S
O1335      C1355   1.284       .  A
O1336      C1357   1.288       .  A
O1337     Zr3843   2.454       .  S
O1337      C1356   1.285       .  A
O1338     Zr3842   2.468       .  S
O1338      C1357   1.291       .  A
O1339      C1356   1.293       .  A
O1340     Zr1348   2.392       .  S
O1341     Zr3842   2.409       .  S
O1341     Zr1972   2.363       .  S
O1342     Zr3843   2.396       .  S
O1342     Zr1972   2.363       .  S
O1342      H1377   0.965       .  S
O1343     Zr3829   2.393   1_455  S
O1343     Zr1346   2.406       .  S
O1343     Zr1363   2.392       .  S
O1343      H1380   0.964       .  S
O1344     Zr3829   2.404   1_455  S
O1344     Zr1347   2.404       .  S
O1344     Zr1363   2.397       .  S
Zr1345     O1364   2.447       .  S
Zr1345     O1372   2.436       .  S
Zr1345     O1360   2.473       .  S
Zr1345     O1351   2.388       .  S
Zr1345     O1352   2.398       .  S
Zr1345     O1370   2.425       .  S
Zr1346     O3834   2.467   1_455  S
Zr1346     O1983   2.476       .  S
Zr1346     O3837   2.409   1_455  S
Zr1346     O1976   2.402       .  S
Zr1346     O1353   2.389       .  S
Zr1346     O1365   2.434       .  S
Zr1346     O4478   2.418   1_455  S
Zr1347     O3833   2.455   1_455  S
Zr1347     O1997   2.469       .  S
Zr1347     O3838   2.397   1_455  S
Zr1347     O1975   2.371       .  S
Zr1347     O1354   2.397       .  S
Zr1347     O1349   2.428       .  S
Zr1347     O4491   2.427   1_455  S
Zr1348     O3847   2.381       .  S
Zr1348     O3848   2.396       .  S
Zr1348     O1374   2.445       .  S
Zr1348     O1375   2.427       .  S
Zr1348     O1350   2.448       .  S
O1349      H1386   0.988       .  S
O1350      H1381   0.990       .  S
O1350      H1395   0.988       .  S
O1351     Zr3844   2.381   1_455  S
O1352     Zr3844   2.396   1_455  S
O1352      H1378   0.962       .  S
O1353     Zr1969   2.367       .  S
O1353     Zr1363   2.378       .  S
O1354     Zr1969   2.391       .  S
O1354     Zr1363   2.364       .  S
O1354      H1379   0.966       .  S
C1355      O1964   1.271       .  A
C1356      C1409   1.495       .  S
O1358     Zr3218   2.418       .  S
O1358      H1394   0.990       .  S
O1359      C1361   1.290       .  A
O1360      C1361   1.294       .  A
C1361      C1481   1.499       .  S
O1362     Zr1363   2.445       .  S
O1362      H1391   0.991       .  S
Zr1363     O1368   2.395       .  S
Zr1363     O1366   2.423       .  S
Zr1363     O1367   2.445       .  S
O1365      H1382   0.989       .  S
O1365      H1397   0.984       .  S
O1366      H1383   0.990       .  S
O1367      H1387   0.990       .  S
O1367      H1396   0.987       .  S
O1368      C1369   1.273       .  A
C1369      C2025   1.464       .  S
C1369      O1988   1.286       .  A
O1370      H1389   0.988       .  S
O1370      H1393   0.989       .  S
O1371     Zr3219   2.427       .  S
O1371      H1385   0.989       .  S
O1371      H1392   0.989       .  S
O1372      C1376   1.287       .  A
O1373      C1376   1.291       .  A
O1374      H1384   0.991       .  S
O1375      H1388   0.988       .  S
C1399      N1400   1.359       .  A
N1400      C1401   1.350       .  A
N1402      C2025   1.355       .  A
N1402      C1403   1.355       .  A
C1403      N1404   1.376       .  A
C1403      C1439   1.497       .  S
N1404      C2023   1.379       .  A
C1405      N1406   1.359       .  A
C1405      N1410   1.377       .  A
C1405      C1538   1.480       .  S
N1406      C1407   1.351       .  A
C1407      N1408   1.356       .  A
C1407      C1433   1.467       .  S
N1408      C1409   1.355       .  A
C1409      N1410   1.375       .  A
Zr1411     O1413   2.454       .  S
Zr1411     O1726   2.446   1_554  S
Zr1411     O1417   2.470       .  S
Zr1411     O1731   2.365   1_554  S
Zr1411     O1420   2.358       .  S
Zr1411     O1733   2.393   1_554  S
Zr1411     O1422   2.404       .  S
O1412     Zr2035   2.392       .  S
O1412      H1468   0.984       .  S
O1412      H1788   0.984       .  S
O1413      C1433   1.285       .  A
O1414     Zr1723   2.446       .  S
O1414      C1435   1.288       .  A
O1415     Zr1425   2.458       .  S
O1415      C1434   1.286       .  A
O1416     Zr1424   2.467       .  S
O1416      C1435   1.291       .  A
O1417      C1434   1.294       .  A
O1418     Zr1426   2.394       .  S
O1418      C1433   1.272       .  A
O1419     Zr1723   2.365       .  S
O1419     Zr1424   2.408       .  S
O1419     Zr1738   2.362       .  S
O1420     Zr1425   2.397       .  S
O1420     Zr1426   2.363       .  S
O1420      H1455   0.965       .  S
O1421     Zr1723   2.393       .  S
O1421     Zr1424   2.405       .  S
O1421     Zr1441   2.393       .  S
O1421      H1458   0.964       .  S
O1422     Zr1425   2.403       .  S
O1422     Zr1753   2.397   1_554  S
Zr1423     O1442   2.447       .  S
Zr1423     O1762   2.440       .  S
Zr1423     O1438   2.475       .  S
Zr1423     O1741   2.387       .  S
Zr1423     O1430   2.399       .  S
Zr1423     O1431   2.367       .  S
Zr1423     O1744   2.391       .  S
Zr1423     O1448   2.424       .  S
Zr1424     O1437   2.472       .  S
Zr1424     O1430   2.402       .  S
Zr1424     O1431   2.389       .  S
Zr1424     O1443   2.435       .  S
Zr1424     O1436   2.418       .  S
Zr1425     O1451   2.471       .  S
Zr1425     O1429   2.371       .  S
Zr1425     O1432   2.398       .  S
Zr1425     O1427   2.429       .  S
Zr1425     O1449   2.426       .  S
Zr1426     O1731   2.362   1_554  S
Zr1426     O1429   2.380       .  S
Zr1426     O1742   2.396   1_554  S
Zr1426     O1452   2.445       .  S
Zr1426     O1453   2.425       .  S
Zr1426     O1740   2.448   1_554  S
O1427      H1464   0.988       .  S
O1428     Zr1738   2.448       .  S
O1428      H1771   0.990       .  S
O1428      H1473   0.988       .  S
O1429     Zr1735   2.388   1_554  S
O1430     Zr1738   2.395       .  S
O1430      H1456   0.962       .  S
O1431     Zr1441   2.377       .  S
O1432     Zr1735   2.391   1_554  S
O1432     Zr1753   2.363   1_554  S
O1432      H1457   0.966       .  S
C1435      C1483   1.482       .  S
O1436      H1472   0.990       .  S
O1437      C1439   1.290       .  A
O1438      C1439   1.295       .  A
O1440     Zr2065   2.444       .  S
O1440      H1469   0.991       .  S
Zr1441     O1446   2.397       .  S
Zr1441     O1734   2.398       .  S
Zr1441     O1744   2.363       .  S
Zr1441     O1444   2.423       .  S
Zr1441     O1757   2.444       .  S
O1442      C1447   1.286       .  A
O1443      H1460   0.989       .  S
O1443      H1475   0.984       .  S
O1444      H1461   0.990       .  S
O1445     Zr1753   2.444   1_554  S
O1445      H1777   0.990       .  S
O1445      H1474   0.987       .  S
O1446      C1447   1.273       .  A
C1447      C1479   1.465       .  S
O1448      H1779   0.988       .  S
O1448      H2095   0.989       .  S
O1449      H1463   0.989       .  S
O1449      H1470   0.989       .  S
O1450     Zr1735   2.440   1_554  S
O1450      C1454   1.288       .  A
O1451      C1454   1.292       .  A
O1452      H1462   0.990       .  S
O1453      H1466   0.988       .  S
C1454      C1489   1.483       .  S
H1459      O1740   0.990   1_554  S
H1465      O1757   0.990       .  S
H1467      O1760   0.988   1_554  S
H1476      O1724   0.985       .  S
C1477      N1478   1.359       .  A
C1477      N1482   1.379       .  A
C1477      C1519   1.482       .  S
N1478      C1479   1.350       .  A
C1479      N1480   1.356       .  A
N1480      C1481   1.355       .  A
C1481      N1482   1.377       .  A
C1483      N1484   1.359       .  A
N1484      C1485   1.350       .  A
N1486      C2109   1.355       .  A
N1486      C1487   1.355       .  A
C1487      N1488   1.376       .  A
N1488      C2107   1.379       .  A
C1489      N1490   1.378       .  A
C1489      N1494   1.359       .  A
N1490      C2115   1.376       .  A
C1491      N1492   1.355       .  A
C1493      N2116   1.356       .  A
C1493      N1494   1.351       .  A
C1493      C1517   1.467       .  S
Zr1495     O1497   2.454       .  S
Zr1495     O1810   2.446   1_554  S
Zr1495     O1501   2.468       .  S
Zr1495     O1815   2.366   1_554  S
Zr1495     O1504   2.357       .  S
Zr1495     O1817   2.393   1_554  S
Zr1495     O1506   2.403       .  S
Zr1495     O1496   2.393       .  S
O1496      H1552   0.984       .  S
O1496      H1872   0.985       .  S
O1497      C1517   1.284       .  A
O1498     Zr1807   2.445       .  S
O1498      C1519   1.288       .  A
O1499     Zr1509   2.455       .  S
O1499      C1518   1.286       .  A
O1500     Zr1508   2.468       .  S
O1500      C1519   1.291       .  A
O1501      C1518   1.293       .  A
O1502     Zr1510   2.393       .  S
O1503     Zr1807   2.365       .  S
O1503     Zr1508   2.409       .  S
O1503     Zr2446   2.363       .  S
O1504     Zr1509   2.397       .  S
O1504     Zr2134   2.363       .  S
O1504      H1539   0.965       .  S
O1505     Zr1807   2.393       .  S
O1505     Zr1508   2.406       .  S
O1505     Zr4021   2.392   1_455  S
O1505      H1542   0.964       .  S
O1506     Zr1509   2.404       .  S
O1506     Zr4333   2.397   1_454  S
Zr1507     O1526   2.447       .  S
Zr1507     O1846   2.436       .  S
Zr1507     O1522   2.474       .  S
Zr1507     O4321   2.388       .  S
Zr1507     O4010   2.397       .  S
Zr1507     O1532   2.424       .  S
Zr1508     O4641   2.476   1_455  S
Zr1508     O2138   2.402       .  S
Zr1508     O4011   2.388   1_455  S
Zr1508     O4023   2.434   1_455  S
Zr1508     O2144   2.418       .  S
Zr1509     O4655   2.469   1_455  S
Zr1509     O2137   2.371       .  S
Zr1509     O4012   2.397   1_455  S
Zr1509     O4007   2.428   1_455  S
Zr1509     O2157   2.428       .  S
Zr1510     O1513   2.381       .  S
Zr1510     O1826   2.396   1_554  S
Zr1510     O1536   2.445       .  S
Zr1510     O1537   2.427       .  S
Zr1510     O1824   2.448   1_554  S
O1511     Zr4005   2.428       .  S
O1511      H1548   0.988       .  S
O1512     Zr1822   2.448       .  S
O1512      H1855   0.990       .  S
O1512      H1557   0.988       .  S
O1513     Zr4315   2.388   1_454  S
O1514     Zr4003   2.398   1_455  S
O1514     Zr1822   2.397       .  S
O1514      H1540   0.962       .  S
O1515     Zr2131   2.366       .  S
O1515     Zr4004   2.388       .  S
O1515     Zr1525   2.377       .  S
O1516     Zr2443   2.390   1_554  S
O1516     Zr4005   2.397       .  S
O1516     Zr1837   2.364   1_554  S
O1516      H1541   0.966       .  S
C1517      O2126   1.271       .  A
O1520      H1556   0.990       .  S
O1521     Zr3380   2.476       .  S
O1521      C1523   1.290       .  A
O1522      C1523   1.295       .  A
O1524     Zr1525   2.445       .  S
O1524      H1553   0.991       .  S
Zr1525     O1530   2.396       .  S
Zr1525     O4001   2.392       .  S
Zr1525     O4314   2.397       .  S
Zr1525     O1828   2.364       .  S
Zr1525     O1528   2.423       .  S
Zr1525     O1841   2.445       .  S
O1527     Zr4004   2.434       .  S
O1527      H1544   0.989       .  S
O1527      H1559   0.985       .  S
O1528      H1545   0.990       .  S
O1529     Zr1837   2.445   1_554  S
O1529      H1861   0.990       .  S
O1529      H1558   0.987       .  S
O1530      C1531   1.274       .  A
C1531      C2109   1.464       .  S
C1531      O2150   1.286       .  A
O1532      H1863   0.988       .  S
O1532      H1555   0.989       .  S
O1533      H1547   0.989       .  S
O1533      H1554   0.989       .  S
O1534     Zr1819   2.436   1_554  S
O1534      C1538   1.287       .  A
O1535     Zr3381   2.468       .  S
O1535      C1538   1.291       .  A
O1536      H1546   0.991       .  S
O1537      H1550   0.988       .  S
H1543      O1824   0.990   1_554  S
H1549      O1841   0.990       .  S
H1551      O1844   0.988   1_554  S
H1560      O1808   0.985       .  S
C1561      N1562   1.379       .  A
C1561      N1566   1.359       .  A
C1561      C1669   1.482       .  S
N1562      C1563   1.377       .  A
C1563      N1564   1.355       .  A
C1563      C1835   1.499       .  S
N1564      C1565   1.356       .  A
C1565      N1566   1.350       .  A
C1565      C1603   1.464       .  S
Zr1567     O1569   2.454       .  S
Zr1567     O1570   2.447       .  S
Zr1567     O1573   2.469       .  S
Zr1567     O1575   2.364       .  S
Zr1567     O1576   2.357       .  S
Zr1567     O1577   2.393       .  S
Zr1567     O1578   2.404       .  S
O1568     Zr2191   2.393       .  S
O1568      H1624   0.984       .  S
O1568      H1632   0.984       .  S
O1569      C1589   1.284       .  A
O1570      C1591   1.288       .  A
O1571     Zr1581   2.459       .  S
O1571      C1590   1.286       .  A
O1572     Zr1580   2.466       .  S
O1572      C1591   1.291       .  A
O1573      C1590   1.294       .  A
O1574     Zr1582   2.393       .  S
O1574      C1589   1.271       .  A
O1575     Zr1580   2.408       .  S
O1575     Zr1582   2.362       .  S
O1576     Zr1581   2.397       .  S
O1576     Zr1582   2.363       .  S
O1576      H1611   0.965       .  S
O1577     Zr1580   2.405       .  S
O1577     Zr1597   2.393       .  S
O1577      H1614   0.964       .  S
O1578     Zr1581   2.403       .  S
O1578     Zr1597   2.397       .  S
Zr1579     O1598   2.447       .  S
Zr1579     O1606   2.439       .  S
Zr1579     O1594   2.474       .  S
Zr1579     O1585   2.387       .  S
Zr1579     O1586   2.398       .  S
Zr1579     O1587   2.367       .  S
Zr1579     O1588   2.391       .  S
Zr1579     O1604   2.424       .  S
Zr1580     O1593   2.473       .  S
Zr1580     O1586   2.402       .  S
Zr1580     O1587   2.389       .  S
Zr1580     O1599   2.434       .  S
Zr1580     O1592   2.419       .  S
Zr1581     O1607   2.472       .  S
Zr1581     O1585   2.372       .  S
Zr1581     O1588   2.398       .  S
Zr1581     O1583   2.429       .  S
Zr1581     O1605   2.427       .  S
Zr1582     O1585   2.381       .  S
Zr1582     O1586   2.395       .  S
Zr1582     O1608   2.444       .  S
Zr1582     O1609   2.425       .  S
Zr1582     O1584   2.448       .  S
O1583      H1620   0.988       .  S
O1584      H1615   0.990       .  S
O1584      H1629   0.988       .  S
O1586      H1612   0.962       .  S
O1587     Zr1597   2.377       .  S
O1588     Zr1597   2.363       .  S
O1588      H1613   0.966       .  S
C1589      C1637   1.467       .  S
C1590      C1803   1.498       .  S
C1591      C1711   1.482       .  S
O1592      H1628   0.990       .  S
O1593      C1595   1.290       .  A
O1594      C1595   1.294       .  A
C1595      C1799   1.497       .  S
O1596     Zr2221   2.444       .  S
O1596      H1625   0.991       .  S
Zr1597     O1602   2.395       .  S
Zr1597     O1600   2.423       .  S
Zr1597     O1601   2.444       .  S
O1598      C1603   1.286       .  A
O1599      H1616   0.989       .  S
O1599      H1631   0.984       .  S
O1600      H1617   0.990       .  S
O1601      H1621   0.990       .  S
O1601      H1630   0.987       .  S
O1602      C1603   1.273       .  A
O1604      H1623   0.988       .  S
O1604      H2251   0.989       .  S
O1605      H1619   0.989       .  S
O1605      H1626   0.989       .  S
O1606      C1610   1.288       .  A
O1607      C1610   1.292       .  A
O1608      H1618   0.990       .  S
O1609      H1622   0.988       .  S
C1610      C1639   1.482       .  S
C1633      N1634   1.377       .  A
C1633      N1638   1.359       .  A
C1633      C1688   1.481       .  S
N1634      C1635   1.375       .  A
C1635      N1636   1.355       .  A
C1635      C1830   1.495       .  S
N1636      C1637   1.356       .  A
C1637      N1638   1.351       .  A
C1639      N1640   1.378       .  A
C1639      N1644   1.359       .  A
N1640      C2265   1.376       .  A
C1641      N1642   1.355       .  A
C1641      C1746   1.498       .  S
C1643      N2266   1.356       .  A
C1643      N1644   1.351       .  A
C1643      C1667   1.467       .  S
Zr1645     O1647   2.454       .  S
Zr1645     O1648   2.445       .  S
Zr1645     O1651   2.467       .  S
Zr1645     O1653   2.365       .  S
Zr1645     O1654   2.357       .  S
Zr1645     O4151   2.393       .  S
Zr1645     O4152   2.404       .  S
Zr1645     O1646   2.394       .  S
O1646      H1702   0.985       .  S
O1646      H1710   0.985       .  S
O1647      C1667   1.284       .  A
O1648      C1669   1.288       .  A
O1649     Zr4155   2.455       .  S
O1649      C1668   1.286       .  A
O1650     Zr4154   2.467       .  S
O1650      C1669   1.291       .  A
O1651      C1668   1.293       .  A
O1652     Zr1660   2.392       .  S
O1653     Zr4154   2.409       .  S
O1653     Zr2284   2.363       .  S
O1654     Zr4155   2.396       .  S
O1654     Zr2284   2.363       .  S
O1654      H1689   0.965       .  S
O1655     Zr4141   2.393   1_455  S
O1655     Zr1658   2.406       .  S
O1655     Zr1675   2.392       .  S
O1655      H1692   0.964       .  S
O1656     Zr4141   2.404   1_455  S
O1656     Zr1659   2.404       .  S
O1656     Zr1675   2.397       .  S
Zr1657     O1676   2.446       .  S
Zr1657     O1684   2.436       .  S
Zr1657     O1672   2.474       .  S
Zr1657     O1663   2.388       .  S
Zr1657     O1664   2.398       .  S
Zr1657     O1682   2.424       .  S
Zr1658     O4146   2.467   1_455  S
Zr1658     O2295   2.476       .  S
Zr1658     O4149   2.409   1_455  S
Zr1658     O2288   2.402       .  S
Zr1658     O1665   2.388       .  S
Zr1658     O1677   2.433       .  S
Zr1658     O4790   2.419   1_455  S
Zr1659     O4145   2.454   1_455  S
Zr1659     O2309   2.470       .  S
Zr1659     O4150   2.397   1_455  S
Zr1659     O2287   2.371       .  S
Zr1659     O1666   2.397       .  S
Zr1659     O1661   2.428       .  S
Zr1659     O4803   2.427   1_455  S
Zr1660     O4159   2.381       .  S
Zr1660     O4160   2.397       .  S
Zr1660     O1686   2.445       .  S
Zr1660     O1687   2.427       .  S
Zr1660     O1662   2.448       .  S
O1661      H1698   0.988       .  S
O1662      H1693   0.990       .  S
O1662      H1707   0.988       .  S
O1663     Zr4156   2.382   1_455  S
O1664     Zr4156   2.397   1_455  S
O1664      H1690   0.962       .  S
O1665     Zr2281   2.367       .  S
O1665     Zr1675   2.378       .  S
O1666     Zr2281   2.391       .  S
O1666     Zr1675   2.364       .  S
O1666      H1691   0.966       .  S
C1667      O2276   1.271       .  A
C1668      C1721   1.495       .  S
O1670     Zr3530   2.419       .  S
O1670      H1706   0.990       .  S
O1671      C1673   1.290       .  A
O1672      C1673   1.295       .  A
C1673      C1793   1.499       .  S
O1674     Zr1675   2.445       .  S
O1674      H1703   0.991       .  S
Zr1675     O1680   2.395       .  S
Zr1675     O1678   2.423       .  S
Zr1675     O1679   2.445       .  S
O1677      H1694   0.989       .  S
O1677      H1709   0.984       .  S
O1678      H1695   0.990       .  S
O1679      H1699   0.990       .  S
O1679      H1708   0.987       .  S
O1680      C1681   1.273       .  A
C1681      C2337   1.464       .  S
C1681      O2300   1.286       .  A
O1682      H1701   0.988       .  S
O1682      H1705   0.989       .  S
O1683     Zr3531   2.427       .  S
O1683      H1697   0.989       .  S
O1683      H1704   0.989       .  S
O1684      C1688   1.287       .  A
O1685      C1688   1.291       .  A
O1686      H1696   0.991       .  S
O1687      H1700   0.988       .  S
C1711      N1712   1.359       .  A
N1712      C1713   1.350       .  A
N1714      C2337   1.355       .  A
N1714      C1715   1.355       .  A
C1715      N1716   1.376       .  A
C1715      C1751   1.497       .  S
N1716      C2335   1.379       .  A
C1717      N1718   1.359       .  A
C1717      N1722   1.377       .  A
C1717      C1850   1.480       .  S
N1718      C1719   1.351       .  A
C1719      N1720   1.356       .  A
C1719      C1745   1.467       .  S
N1720      C1721   1.355       .  A
C1721      N1722   1.375       .  A
Zr1723     O1725   2.454       .  S
Zr1723     O1729   2.470       .  S
Zr1723     O1732   2.357       .  S
Zr1723     O1734   2.404       .  S
O1724     Zr2347   2.392       .  S
O1724      H1780   0.984       .  S
O1725      C1745   1.285       .  A
O1726      C1747   1.288       .  A
O1727     Zr1737   2.458       .  S
O1727      C1746   1.286       .  A
O1728     Zr1736   2.466       .  S
O1728      C1747   1.291       .  A
O1729      C1746   1.294       .  A
O1730     Zr1738   2.394       .  S
O1730      C1745   1.271       .  A
O1731     Zr1736   2.408       .  S
O1732     Zr1737   2.397       .  S
O1732     Zr1738   2.363       .  S
O1732      H1767   0.965       .  S
O1733     Zr1736   2.405       .  S
O1733     Zr1753   2.393       .  S
O1733      H1770   0.964       .  S
O1734     Zr1737   2.403       .  S
Zr1735     O1754   2.447       .  S
Zr1735     O1750   2.474       .  S
Zr1735     O1742   2.399       .  S
Zr1735     O1743   2.367       .  S
Zr1735     O1760   2.423       .  S
Zr1736     O1749   2.473       .  S
Zr1736     O1742   2.402       .  S
Zr1736     O1743   2.389       .  S
Zr1736     O1755   2.434       .  S
Zr1736     O1748   2.419       .  S
Zr1737     O1763   2.471       .  S
Zr1737     O1741   2.371       .  S
Zr1737     O1744   2.398       .  S
Zr1737     O1739   2.429       .  S
Zr1737     O1761   2.427       .  S
Zr1738     O1741   2.381       .  S
Zr1738     O1764   2.444       .  S
Zr1738     O1765   2.426       .  S
O1739      H1776   0.988       .  S
O1740      H1785   0.988       .  S
O1742      H1768   0.962       .  S
O1743     Zr1753   2.378       .  S
O1744      H1769   0.966       .  S
C1747      C1795   1.482       .  S
O1748      H1784   0.990       .  S
O1749      C1751   1.290       .  A
O1750      C1751   1.295       .  A
O1752     Zr2377   2.444       .  S
O1752      H1781   0.991       .  S
Zr1753     O1758   2.396       .  S
Zr1753     O1756   2.423       .  S
O1754      C1759   1.286       .  A
O1755      H1772   0.989       .  S
O1755      H1787   0.984       .  S
O1756      H1773   0.990       .  S
O1757      H1786   0.987       .  S
O1758      C1759   1.273       .  A
C1759      C1791   1.465       .  S
O1760      H2407   0.989       .  S
O1761      H1775   0.989       .  S
O1761      H1782   0.989       .  S
O1762      C1766   1.288       .  A
O1763      C1766   1.291       .  A
O1764      H1774   0.990       .  S
O1765      H1778   0.988       .  S
C1766      C1801   1.483       .  S
C1789      N1790   1.359       .  A
C1789      N1794   1.379       .  A
C1789      C1831   1.482       .  S
N1790      C1791   1.350       .  A
C1791      N1792   1.356       .  A
N1792      C1793   1.355       .  A
C1793      N1794   1.377       .  A
C1795      N1796   1.359       .  A
N1796      C1797   1.350       .  A
N1798      C2421   1.355       .  A
N1798      C1799   1.355       .  A
C1799      N1800   1.376       .  A
N1800      C2419   1.379       .  A
C1801      N1802   1.378       .  A
C1801      N1806   1.359       .  A
N1802      C2427   1.376       .  A
C1803      N1804   1.355       .  A
C1805      N2428   1.357       .  A
C1805      N1806   1.351       .  A
C1805      C1829   1.467       .  S
Zr1807     O1809   2.455       .  S
Zr1807     O1813   2.467       .  S
Zr1807     O1816   2.357       .  S
Zr1807     O1818   2.403       .  S
Zr1807     O1808   2.394       .  S
O1808      H1864   0.984       .  S
O1809      C1829   1.285       .  A
O1810      C1831   1.288       .  A
O1811     Zr1821   2.455       .  S
O1811      C1830   1.286       .  A
O1812     Zr1820   2.468       .  S
O1812      C1831   1.291       .  A
O1813      C1830   1.293       .  A
O1814     Zr1822   2.393       .  S
O1815     Zr1820   2.409       .  S
O1815     Zr2134   2.363   1_556  S
O1816     Zr1821   2.396       .  S
O1816     Zr2446   2.363       .  S
O1816      H1851   0.965       .  S
O1817     Zr1820   2.406       .  S
O1817     Zr4333   2.392   1_455  S
O1817      H1854   0.964       .  S
O1818     Zr1821   2.404       .  S
O1818     Zr4021   2.397   1_455  S
Zr1819     O1838   2.447       .  S
Zr1819     O1834   2.473       .  S
Zr1819     O4009   2.388   1_556  S
Zr1819     O4322   2.398       .  S
Zr1819     O1844   2.424       .  S
Zr1820     O4953   2.476   1_455  S
Zr1820     O2450   2.402       .  S
Zr1820     O4323   2.388   1_455  S
Zr1820     O4335   2.434   1_455  S
Zr1820     O2456   2.418       .  S
Zr1821     O4967   2.469   1_455  S
Zr1821     O2449   2.371       .  S
Zr1821     O4324   2.397   1_455  S
Zr1821     O4319   2.427   1_455  S
Zr1821     O2469   2.427       .  S
Zr1822     O1825   2.382       .  S
Zr1822     O1848   2.445       .  S
Zr1822     O1849   2.427       .  S
O1823     Zr4317   2.427       .  S
O1823      H1860   0.988       .  S
O1824      H1869   0.988       .  S
O1825     Zr4003   2.388   1_455  S
O1826     Zr4315   2.398   1_455  S
O1826      H1852   0.962       .  S
O1827     Zr2443   2.367       .  S
O1827     Zr4316   2.388       .  S
O1827     Zr1837   2.378       .  S
O1828     Zr2131   2.390       .  S
O1828     Zr4317   2.397       .  S
O1828      H1853   0.966       .  S
C1829      O2438   1.271       .  A
O1832      H1868   0.990       .  S
O1833     Zr3692   2.476       .  S
O1833      C1835   1.290       .  A
O1834      C1835   1.295       .  A
O1836     Zr1837   2.445       .  S
O1836      H1865   0.991       .  S
Zr1837     O1842   2.395       .  S
Zr1837     O4313   2.392       .  S
Zr1837     O4002   2.397   1_556  S
Zr1837     O1840   2.423       .  S
O1839     Zr4316   2.434       .  S
O1839      H1856   0.989       .  S
O1839      H1871   0.985       .  S
O1840      H1857   0.990       .  S
O1841      H1870   0.987       .  S
O1842      C1843   1.273       .  A
C1843      C2421   1.464       .  S
C1843      O2462   1.286       .  A
O1844      H1867   0.989       .  S
O1845      H1859   0.989       .  S
O1845      H1866   0.989       .  S
O1846      C1850   1.287       .  A
O1847     Zr3693   2.469       .  S
O1847      C1850   1.291       .  A
O1848      H1858   0.991       .  S
O1849      H1862   0.988       .  S
C1873      N1874   1.380       .  A
C1873      N1878   1.359       .  A
C1873      C1981   1.483       .  S
N1874      C1875   1.377       .  A
C1875      N1876   1.355       .  A
C1875      C2147   1.499       .  S
N1876      C1877   1.356       .  A
C1877      N1878   1.350       .  A
C1877      C1915   1.465       .  S
Zr1879     O1881   2.454       .  S
Zr1879     O1882   2.447       .  S
Zr1879     O1885   2.470       .  S
Zr1879     O1887   2.365       .  S
Zr1879     O1888   2.357       .  S
Zr1879     O1889   2.393       .  S
Zr1879     O1890   2.404       .  S
O1880      H1936   0.984       .  S
O1880      H1944   0.984       .  S
O1881      C1901   1.285       .  A
O1882      C1903   1.288       .  A
O1883     Zr1893   2.458       .  S
O1883      C1902   1.286       .  A
O1884     Zr1892   2.466       .  S
O1884      C1903   1.291       .  A
O1885      C1902   1.294       .  A
O1886     Zr1894   2.394       .  S
O1886      C1901   1.271       .  A
O1887     Zr1892   2.409       .  S
O1887     Zr1894   2.362       .  S
O1888     Zr1893   2.397       .  S
O1888     Zr1894   2.363       .  S
O1888      H1923   0.965       .  S
O1889     Zr1892   2.406       .  S
O1889     Zr1909   2.393       .  S
O1889      H1926   0.964       .  S
O1890     Zr1893   2.403       .  S
O1890     Zr1909   2.398       .  S
Zr1891     O1910   2.447       .  S
Zr1891     O1918   2.440       .  S
Zr1891     O1906   2.474       .  S
Zr1891     O1897   2.388       .  S
Zr1891     O1898   2.399       .  S
Zr1891     O1899   2.367       .  S
Zr1891     O1900   2.391       .  S
Zr1891     O1916   2.423       .  S
Zr1892     O1905   2.473       .  S
Zr1892     O1898   2.402       .  S
Zr1892     O1899   2.389       .  S
Zr1892     O1911   2.435       .  S
Zr1892     O1904   2.419       .  S
Zr1893     O1919   2.472       .  S
Zr1893     O1897   2.372       .  S
Zr1893     O1900   2.398       .  S
Zr1893     O1895   2.429       .  S
Zr1893     O1917   2.427       .  S
Zr1894     O1897   2.381       .  S
Zr1894     O1898   2.396       .  S
Zr1894     O1920   2.445       .  S
Zr1894     O1921   2.425       .  S
Zr1894     O1896   2.448       .  S
O1895      H1932   0.988       .  S
O1896      H1927   0.990       .  S
O1896      H1941   0.988       .  S
O1898      H1924   0.962       .  S
O1899     Zr1909   2.378       .  S
O1900     Zr1909   2.363       .  S
O1900      H1925   0.966       .  S
C1901      C1949   1.467       .  S
C1902      C2115   1.498       .  S
C1903      C2023   1.482       .  S
O1904      H1940   0.990       .  S
O1905      C1907   1.290       .  A
O1906      C1907   1.295       .  A
C1907      C2111   1.497       .  S
O1908      H1937   0.991       .  S
Zr1909     O1914   2.396       .  S
Zr1909     O1912   2.423       .  S
Zr1909     O1913   2.444       .  S
O1910      C1915   1.286       .  A
O1911      H1928   0.989       .  S
O1911      H1943   0.984       .  S
O1912      H1929   0.990       .  S
O1913      H1933   0.990       .  S
O1913      H1942   0.987       .  S
O1914      C1915   1.273       .  A
O1916      H1935   0.988       .  S
O1917      H1931   0.989       .  S
O1917      H1938   0.989       .  S
O1918      C1922   1.288       .  A
O1919      C1922   1.292       .  A
O1920      H1930   0.991       .  S
O1921      H1934   0.988       .  S
C1922      C1951   1.483       .  S
C1945      N1946   1.377       .  A
C1945      N1950   1.358       .  A
C1945      C2000   1.480       .  S
N1946      C1947   1.375       .  A
C1947      N1948   1.355       .  A
C1947      C2142   1.496       .  S
N1948      C1949   1.356       .  A
C1949      N1950   1.351       .  A
C1951      N1952   1.378       .  A
C1951      N1956   1.359       .  A
C1953      N1954   1.355       .  A
C1953      C2058   1.498       .  S
C1955      N1956   1.351       .  A
C1955      C1979   1.467       .  S
Zr1957     O1959   2.454       .  S
Zr1957     O1960   2.447       .  S
Zr1957     O1963   2.469       .  S
Zr1957     O1965   2.365       .  S
Zr1957     O1966   2.357       .  S
Zr1957     O4463   2.393       .  S
Zr1957     O4464   2.404       .  S
Zr1957     O1958   2.393       .  S
O1958      H2014   0.984       .  S
O1958      H2022   0.985       .  S
O1959      C1979   1.285       .  A
O1960      C1981   1.288       .  A
O1961     Zr4467   2.454       .  S
O1961      C1980   1.286       .  A
O1962     Zr4466   2.467       .  S
O1962      C1981   1.291       .  A
O1963      C1980   1.293       .  A
O1964     Zr1972   2.393       .  S
O1965     Zr4466   2.409       .  S
O1966     Zr4467   2.396       .  S
O1966      H2001   0.965       .  S
O1967     Zr4453   2.393   1_455  S
O1967     Zr1970   2.406       .  S
O1967     Zr1987   2.392       .  S
O1967      H2004   0.964       .  S
O1968     Zr4453   2.403   1_455  S
O1968     Zr1971   2.404       .  S
O1968     Zr1987   2.397       .  S
Zr1969     O1988   2.447       .  S
Zr1969     O1996   2.436       .  S
Zr1969     O1984   2.474       .  S
Zr1969     O1975   2.388       .  S
Zr1969     O1976   2.398       .  S
Zr1969     O1994   2.425       .  S
Zr1970     O4458   2.467   1_455  S
Zr1970     O4461   2.409   1_455  S
Zr1970     O1977   2.389       .  S
Zr1970     O1989   2.433       .  S
Zr1970     O2606   2.419   1_465  S
Zr1971     O4457   2.454   1_455  S
Zr1971     O4462   2.397   1_455  S
Zr1971     O1978   2.397       .  S
Zr1971     O1973   2.428       .  S
Zr1971     O2619   2.427   1_465  S
Zr1972     O4471   2.381       .  S
Zr1972     O4472   2.396       .  S
Zr1972     O1998   2.445       .  S
Zr1972     O1999   2.427       .  S
Zr1972     O1974   2.448       .  S
O1973      H2010   0.988       .  S
O1974      H2005   0.990       .  S
O1974      H2019   0.988       .  S
O1975     Zr4468   2.381   1_455  S
O1976     Zr4468   2.396   1_455  S
O1976      H2002   0.962       .  S
O1977     Zr1987   2.378       .  S
O1978     Zr1987   2.364       .  S
O1978      H2003   0.966       .  S
C1980      C2033   1.495       .  S
O1982     Zr3842   2.419       .  S
O1982      H2018   0.990       .  S
O1983      C1985   1.290       .  A
O1984      C1985   1.295       .  A
C1985      C2105   1.499       .  S
O1986     Zr1987   2.445       .  S
O1986      H2015   0.991       .  S
Zr1987     O1992   2.395       .  S
Zr1987     O1990   2.423       .  S
Zr1987     O1991   2.445       .  S
O1989      H2006   0.989       .  S
O1989      H2021   0.984       .  S
O1990      H2007   0.990       .  S
O1991      H2011   0.990       .  S
O1991      H2020   0.987       .  S
O1992      C1993   1.273   1_565  A
O1994      H2013   0.988       .  S
O1994      H2017   0.989       .  S
O1995     Zr3843   2.427       .  S
O1995      H2009   0.989       .  S
O1995      H2016   0.989       .  S
O1996      C2000   1.287       .  A
O1997      C2000   1.291       .  A
O1998      H2008   0.991       .  S
O1999      H2012   0.988       .  S
C2023      N2024   1.359       .  A
N2024      C2025   1.350       .  A
N2026      C2027   1.355       .  A
C2027      N2028   1.376       .  A
C2027      C2063   1.497       .  S
C2029      N2030   1.359       .  A
C2029      N2034   1.377       .  A
C2029      C2162   1.480       .  S
N2030      C2031   1.351       .  A
C2031      N2032   1.356       .  A
C2031      C2057   1.468       .  S
N2032      C2033   1.355       .  A
C2033      N2034   1.375       .  A
Zr2035     O2037   2.455       .  S
Zr2035     O2350   2.446   1_554  S
Zr2035     O2041   2.470       .  S
Zr2035     O2355   2.365   1_554  S
Zr2035     O2044   2.357       .  S
Zr2035     O2357   2.393   1_554  S
Zr2035     O2046   2.404       .  S
O2036      H2092   0.984       .  S
O2036      H2412   0.984       .  S
O2037      C2057   1.285       .  A
O2038     Zr2347   2.447       .  S
O2038      C2059   1.288       .  A
O2039     Zr2049   2.458       .  S
O2039      C2058   1.286       .  A
O2040     Zr2048   2.466       .  S
O2040      C2059   1.291       .  A
O2041      C2058   1.294       .  A
O2042     Zr2050   2.394       .  S
O2042      C2057   1.272       .  A
O2043     Zr2347   2.365       .  S
O2043     Zr2048   2.408       .  S
O2043     Zr2362   2.362       .  S
O2044     Zr2049   2.397       .  S
O2044     Zr2050   2.363       .  S
O2044      H2079   0.965       .  S
O2045     Zr2347   2.393       .  S
O2045     Zr2048   2.405       .  S
O2045     Zr2065   2.393       .  S
O2045      H2082   0.964       .  S
O2046     Zr2049   2.403       .  S
O2046     Zr2377   2.397   1_554  S
Zr2047     O2066   2.447       .  S
Zr2047     O2386   2.440       .  S
Zr2047     O2062   2.475       .  S
Zr2047     O2365   2.388       .  S
Zr2047     O2054   2.399       .  S
Zr2047     O2055   2.367       .  S
Zr2047     O2368   2.391       .  S
Zr2047     O2072   2.423       .  S
Zr2048     O2061   2.472       .  S
Zr2048     O2054   2.402       .  S
Zr2048     O2055   2.389       .  S
Zr2048     O2067   2.434       .  S
Zr2048     O2060   2.418       .  S
Zr2049     O2075   2.472       .  S
Zr2049     O2053   2.371       .  S
Zr2049     O2056   2.398       .  S
Zr2049     O2051   2.429       .  S
Zr2049     O2073   2.427       .  S
Zr2050     O2355   2.362   1_554  S
Zr2050     O2053   2.380       .  S
Zr2050     O2366   2.396   1_554  S
Zr2050     O2076   2.444       .  S
Zr2050     O2077   2.425       .  S
Zr2050     O2364   2.448   1_554  S
O2051      H2088   0.988       .  S
O2052     Zr2362   2.448       .  S
O2052      H2395   0.990       .  S
O2052      H2097   0.988       .  S
O2053     Zr2359   2.387   1_554  S
O2054     Zr2362   2.395       .  S
O2054      H2080   0.962       .  S
O2055     Zr2065   2.377       .  S
O2056     Zr2359   2.391   1_554  S
O2056     Zr2377   2.363   1_554  S
O2056      H2081   0.966       .  S
C2059      C2107   1.482       .  S
O2060      H2096   0.990       .  S
O2061      C2063   1.289       .  A
O2062      C2063   1.295       .  A
O2064      H2093   0.991       .  S
Zr2065     O2070   2.397       .  S
Zr2065     O2358   2.398       .  S
Zr2065     O2368   2.363       .  S
Zr2065     O2068   2.423       .  S
Zr2065     O2381   2.444       .  S
O2066      C2071   1.286       .  A
O2067      H2084   0.989       .  S
O2067      H2099   0.984       .  S
O2068      H2085   0.990       .  S
O2069     Zr2377   2.444   1_554  S
O2069      H2401   0.990       .  S
O2069      H2098   0.987       .  S
O2070      C2071   1.273       .  A
C2071      C2103   1.465       .  S
O2072      H2403   0.988       .  S
O2073      H2087   0.989       .  S
O2073      H2094   0.989       .  S
O2074     Zr2359   2.440   1_554  S
O2074      C2078   1.288       .  A
O2075      C2078   1.292       .  A
O2076      H2086   0.990       .  S
O2077      H2090   0.988       .  S
C2078      C2113   1.483       .  S
H2083      O2364   0.990   1_554  S
H2089      O2381   0.990       .  S
H2091      O2384   0.988   1_554  S
H2100      O2348   0.984       .  S
C2101      N2102   1.359       .  A
C2101      N2106   1.379       .  A
C2101      C2143   1.482       .  S
N2102      C2103   1.350       .  A
C2103      N2104   1.356       .  A
N2104      C2105   1.355       .  A
C2105      N2106   1.377       .  A
C2107      N2108   1.359       .  A
N2108      C2109   1.350       .  A
N2110      C2111   1.355       .  A
C2111      N2112   1.376       .  A
C2113      N2114   1.378       .  A
C2113      N2118   1.359       .  A
C2115      N2116   1.355       .  A
C2117      N2118   1.351       .  A
C2117      C2141   1.467       .  S
Zr2119     O2121   2.454       .  S
Zr2119     O2434   2.447   1_554  S
Zr2119     O2125   2.468       .  S
Zr2119     O2439   2.366   1_554  S
Zr2119     O2128   2.357       .  S
Zr2119     O2441   2.393   1_554  S
Zr2119     O2130   2.403       .  S
Zr2119     O2120   2.393       .  S
O2120      H2176   0.984       .  S
O2120      H2496   0.985       .  S
O2121      C2141   1.284       .  A
O2122     Zr2431   2.445       .  S
O2122      C2143   1.288       .  A
O2123     Zr2133   2.455       .  S
O2123      C2142   1.286       .  A
O2124     Zr2132   2.467       .  S
O2124      C2143   1.291       .  A
O2125      C2142   1.293       .  A
O2126     Zr2134   2.393       .  S
O2127     Zr2431   2.366       .  S
O2127     Zr2132   2.409       .  S
O2128     Zr2133   2.396       .  S
O2128      H2163   0.965       .  S
O2129     Zr2431   2.393       .  S
O2129     Zr2132   2.406       .  S
O2129     Zr4645   2.392   1_455  S
O2129      H2166   0.964       .  S
O2130     Zr2133   2.404       .  S
O2130     Zr4957   2.397   1_454  S
Zr2131     O2150   2.447       .  S
Zr2131     O2470   2.436       .  S
Zr2131     O2146   2.474       .  S
Zr2131     O4945   2.388       .  S
Zr2131     O4634   2.398       .  S
Zr2131     O2156   2.424       .  S
Zr2132     O2769   2.476   1_465  S
Zr2132     O4635   2.388   1_455  S
Zr2132     O4647   2.434   1_455  S
Zr2133     O2783   2.469   1_465  S
Zr2133     O4636   2.397   1_455  S
Zr2133     O4631   2.428   1_455  S
Zr2134     O2137   2.382       .  S
Zr2134     O2450   2.396   1_554  S
Zr2134     O2160   2.445       .  S
Zr2134     O2161   2.427       .  S
Zr2134     O2448   2.448   1_554  S
O2135     Zr4629   2.428       .  S
O2135      H2172   0.988       .  S
O2136     Zr2446   2.448       .  S
O2136      H2479   0.990       .  S
O2136      H2181   0.988       .  S
O2137     Zr4939   2.388   1_454  S
O2138     Zr4627   2.398   1_455  S
O2138     Zr2446   2.397       .  S
O2138      H2164   0.962       .  S
O2139     Zr4628   2.388       .  S
O2139     Zr2149   2.378       .  S
O2140     Zr4629   2.397       .  S
O2140     Zr2461   2.364   1_554  S
O2140      H2165   0.966       .  S
O2144      H2180   0.990       .  S
O2145     Zr4004   2.476       .  S
O2145      C2147   1.290       .  A
O2146      C2147   1.295       .  A
O2148     Zr2149   2.445       .  S
O2148      H2177   0.991       .  S
Zr2149     O2154   2.395       .  S
Zr2149     O4625   2.392       .  S
Zr2149     O4938   2.397       .  S
Zr2149     O2452   2.364       .  S
Zr2149     O2152   2.423       .  S
Zr2149     O2465   2.445       .  S
O2151     Zr4628   2.434       .  S
O2151      H2168   0.989       .  S
O2151      H2183   0.985       .  S
O2152      H2169   0.990       .  S
O2153     Zr2461   2.444   1_554  S
O2153      H2485   0.990       .  S
O2153      H2182   0.987       .  S
O2154      C2155   1.273   1_565  A
O2156      H2487   0.988       .  S
O2156      H2179   0.989       .  S
O2157      H2171   0.989       .  S
O2157      H2178   0.989       .  S
O2158     Zr2443   2.435   1_554  S
O2158      C2162   1.287       .  A
O2159     Zr4005   2.469       .  S
O2159      C2162   1.291       .  A
O2160      H2170   0.991       .  S
O2161      H2174   0.988       .  S
H2167      O2448   0.990   1_554  S
H2173      O2465   0.990       .  S
H2175      O2468   0.988   1_554  S
H2184      O2432   0.985       .  S
C2185      N2186   1.379       .  A
C2185      N2190   1.359       .  A
C2185      C2293   1.482       .  S
N2186      C2187   1.377       .  A
C2187      N2188   1.355       .  A
C2187      C2459   1.499       .  S
N2188      C2189   1.356       .  A
C2189      N2190   1.350       .  A
C2189      C2227   1.464       .  S
Zr2191     O2193   2.455       .  S
Zr2191     O2194   2.447       .  S
Zr2191     O2197   2.470       .  S
Zr2191     O2199   2.365       .  S
Zr2191     O2200   2.358       .  S
Zr2191     O2201   2.393       .  S
Zr2191     O2202   2.404       .  S
O2192      H2248   0.984       .  S
O2192      H2256   0.984       .  S
O2193      C2213   1.285       .  A
O2194      C2215   1.288       .  A
O2195     Zr2205   2.459       .  S
O2195      C2214   1.286       .  A
O2196     Zr2204   2.466       .  S
O2196      C2215   1.291       .  A
O2197      C2214   1.294       .  A
O2198     Zr2206   2.394       .  S
O2198      C2213   1.271       .  A
O2199     Zr2204   2.408       .  S
O2199     Zr2206   2.362       .  S
O2200     Zr2205   2.397       .  S
O2200     Zr2206   2.363       .  S
O2200      H2235   0.965       .  S
O2201     Zr2204   2.405       .  S
O2201     Zr2221   2.393       .  S
O2201      H2238   0.964       .  S
O2202     Zr2205   2.403       .  S
O2202     Zr2221   2.397       .  S
Zr2203     O2222   2.447       .  S
Zr2203     O2230   2.439       .  S
Zr2203     O2218   2.473       .  S
Zr2203     O2209   2.387       .  S
Zr2203     O2210   2.399       .  S
Zr2203     O2211   2.367       .  S
Zr2203     O2212   2.391       .  S
Zr2203     O2228   2.424       .  S
Zr2204     O2217   2.473       .  S
Zr2204     O2210   2.402       .  S
Zr2204     O2211   2.389       .  S
Zr2204     O2223   2.434       .  S
Zr2204     O2216   2.419       .  S
Zr2205     O2231   2.472       .  S
Zr2205     O2209   2.371       .  S
Zr2205     O2212   2.398       .  S
Zr2205     O2207   2.429       .  S
Zr2205     O2229   2.427       .  S
Zr2206     O2209   2.381       .  S
Zr2206     O2210   2.395       .  S
Zr2206     O2232   2.444       .  S
Zr2206     O2233   2.425       .  S
Zr2206     O2208   2.448       .  S
O2207      H2244   0.988       .  S
O2208      H2239   0.990       .  S
O2208      H2253   0.988       .  S
O2210      H2236   0.962       .  S
O2211     Zr2221   2.377       .  S
O2212     Zr2221   2.363       .  S
O2212      H2237   0.966       .  S
C2213      C2261   1.467       .  S
C2214      C2427   1.498       .  S
C2215      C2335   1.482       .  S
O2216      H2252   0.990       .  S
O2217      C2219   1.290       .  A
O2218      C2219   1.294       .  A
C2219      C2423   1.497       .  S
O2220      H2249   0.991       .  S
Zr2221     O2226   2.395       .  S
Zr2221     O2224   2.423       .  S
Zr2221     O2225   2.444       .  S
O2222      C2227   1.286       .  A
O2223      H2240   0.989       .  S
O2223      H2255   0.984       .  S
O2224      H2241   0.990       .  S
O2225      H2245   0.990       .  S
O2225      H2254   0.987       .  S
O2226      C2227   1.273       .  A
O2228      H2247   0.988       .  S
O2229      H2243   0.989       .  S
O2229      H2250   0.989       .  S
O2230      C2234   1.287       .  A
O2231      C2234   1.292       .  A
O2232      H2242   0.990       .  S
O2233      H2246   0.988       .  S
C2234      C2263   1.483       .  S
C2257      N2258   1.377       .  A
C2257      N2262   1.359       .  A
C2257      C2312   1.481       .  S
N2258      C2259   1.375       .  A
C2259      N2260   1.355       .  A
C2259      C2454   1.495       .  S
N2260      C2261   1.356       .  A
C2261      N2262   1.351       .  A
C2263      N2264   1.378       .  A
C2263      N2268   1.359       .  A
C2265      N2266   1.355       .  A
C2265      C2370   1.498       .  S
C2267      N2268   1.351       .  A
C2267      C2291   1.466       .  S
Zr2269     O2271   2.454       .  S
Zr2269     O2272   2.446       .  S
Zr2269     O2275   2.467       .  S
Zr2269     O2277   2.365       .  S
Zr2269     O2278   2.357       .  S
Zr2269     O4775   2.392       .  S
Zr2269     O4776   2.404       .  S
Zr2269     O2270   2.394       .  S
O2270      H2326   0.985       .  S
O2270      H2334   0.985       .  S
O2271      C2291   1.284       .  A
O2272      C2293   1.288       .  A
O2273     Zr4779   2.454       .  S
O2273      C2292   1.286       .  A
O2274     Zr4778   2.467       .  S
O2274      C2293   1.291       .  A
O2275      C2292   1.293       .  A
O2276     Zr2284   2.392       .  S
O2277     Zr4778   2.409       .  S
O2278     Zr4779   2.396       .  S
O2278      H2313   0.965       .  S
O2279     Zr4765   2.393   1_455  S
O2279     Zr2282   2.406       .  S
O2279     Zr2299   2.392       .  S
O2279      H2316   0.964       .  S
O2280     Zr4765   2.404   1_455  S
O2280     Zr2283   2.404       .  S
O2280     Zr2299   2.397       .  S
Zr2281     O2300   2.447       .  S
Zr2281     O2308   2.437       .  S
Zr2281     O2296   2.474       .  S
Zr2281     O2287   2.388       .  S
Zr2281     O2288   2.398       .  S
Zr2281     O2306   2.424       .  S
Zr2282     O4770   2.468   1_455  S
Zr2282     O4773   2.409   1_455  S
Zr2282     O2289   2.388       .  S
Zr2282     O2301   2.433       .  S
Zr2282     O2918   2.419   1_465  S
Zr2283     O4769   2.454   1_455  S
Zr2283     O4774   2.397   1_455  S
Zr2283     O2290   2.397       .  S
Zr2283     O2285   2.428       .  S
Zr2283     O2931   2.427   1_465  S
Zr2284     O4783   2.382       .  S
Zr2284     O4784   2.396       .  S
Zr2284     O2310   2.445       .  S
Zr2284     O2311   2.426       .  S
Zr2284     O2286   2.448       .  S
O2285      H2322   0.988       .  S
O2286      H2317   0.990       .  S
O2286      H2331   0.988       .  S
O2287     Zr4780   2.381   1_455  S
O2288     Zr4780   2.397   1_455  S
O2288      H2314   0.962       .  S
O2289     Zr2299   2.378       .  S
O2290     Zr2299   2.364       .  S
O2290      H2315   0.966       .  S
C2292      C2345   1.495       .  S
O2294     Zr4154   2.419       .  S
O2294      H2330   0.990       .  S
O2295      C2297   1.290       .  A
O2296      C2297   1.295       .  A
C2297      C2417   1.499       .  S
O2298     Zr2299   2.445       .  S
O2298      H2327   0.991       .  S
Zr2299     O2304   2.394       .  S
Zr2299     O2302   2.423       .  S
Zr2299     O2303   2.445       .  S
O2301      H2318   0.989       .  S
O2301      H2333   0.985       .  S
O2302      H2319   0.990       .  S
O2303      H2323   0.990       .  S
O2303      H2332   0.987       .  S
O2304      C2305   1.273   1_565  A
O2306      H2325   0.988       .  S
O2306      H2329   0.989       .  S
O2307     Zr4155   2.427       .  S
O2307      H2321   0.989       .  S
O2307      H2328   0.989       .  S
O2308      C2312   1.287       .  A
O2309      C2312   1.291       .  A
O2310      H2320   0.991       .  S
O2311      H2324   0.988       .  S
C2335      N2336   1.359       .  A
N2336      C2337   1.350       .  A
N2338      C2339   1.355       .  A
C2339      N2340   1.376       .  A
C2339      C2375   1.497       .  S
C2341      N2342   1.359       .  A
C2341      N2346   1.377       .  A
C2341      C2474   1.480       .  S
N2342      C2343   1.351       .  A
C2343      N2344   1.356       .  A
C2343      C2369   1.467       .  S
N2344      C2345   1.355       .  A
C2345      N2346   1.375       .  A
Zr2347     O2349   2.454       .  S
Zr2347     O2353   2.470       .  S
Zr2347     O2356   2.357       .  S
Zr2347     O2358   2.404       .  S
O2348      H2404   0.984       .  S
O2349      C2369   1.285       .  A
O2350      C2371   1.288       .  A
O2351     Zr2361   2.458       .  S
O2351      C2370   1.286       .  A
O2352     Zr2360   2.467       .  S
O2352      C2371   1.291       .  A
O2353      C2370   1.294       .  A
O2354     Zr2362   2.394       .  S
O2354      C2369   1.271       .  A
O2355     Zr2360   2.408       .  S
O2356     Zr2361   2.397       .  S
O2356     Zr2362   2.363       .  S
O2356      H2391   0.965       .  S
O2357     Zr2360   2.405       .  S
O2357     Zr2377   2.393       .  S
O2357      H2394   0.964       .  S
O2358     Zr2361   2.403       .  S
Zr2359     O2378   2.447       .  S
Zr2359     O2374   2.474       .  S
Zr2359     O2366   2.399       .  S
Zr2359     O2367   2.367       .  S
Zr2359     O2384   2.423       .  S
Zr2360     O2373   2.473       .  S
Zr2360     O2366   2.402       .  S
Zr2360     O2367   2.389       .  S
Zr2360     O2379   2.434       .  S
Zr2360     O2372   2.419       .  S
Zr2361     O2387   2.471       .  S
Zr2361     O2365   2.371       .  S
Zr2361     O2368   2.398       .  S
Zr2361     O2363   2.429       .  S
Zr2361     O2385   2.427       .  S
Zr2362     O2365   2.381       .  S
Zr2362     O2388   2.444       .  S
Zr2362     O2389   2.426       .  S
O2363      H2400   0.988       .  S
O2364      H2409   0.988       .  S
O2366      H2392   0.962       .  S
O2367     Zr2377   2.377       .  S
O2368      H2393   0.966       .  S
C2371      C2419   1.482       .  S
O2372      H2408   0.990       .  S
O2373      C2375   1.290       .  A
O2374      C2375   1.294       .  A
O2376      H2405   0.991       .  S
Zr2377     O2382   2.396       .  S
Zr2377     O2380   2.423       .  S
O2378      C2383   1.286       .  A
O2379      H2396   0.989       .  S
O2379      H2411   0.984       .  S
O2380      H2397   0.990       .  S
O2381      H2410   0.987       .  S
O2382      C2383   1.273       .  A
C2383      C2415   1.465       .  S
O2385      H2399   0.989       .  S
O2385      H2406   0.989       .  S
O2386      C2390   1.288       .  A
O2387      C2390   1.291       .  A
O2388      H2398   0.990       .  S
O2389      H2402   0.988       .  S
C2390      C2425   1.482       .  S
C2413      N2414   1.359       .  A
C2413      N2418   1.379       .  A
C2413      C2455   1.482       .  S
N2414      C2415   1.350       .  A
C2415      N2416   1.356       .  A
N2416      C2417   1.355       .  A
C2417      N2418   1.377       .  A
C2419      N2420   1.359       .  A
N2420      C2421   1.350       .  A
N2422      C2423   1.355       .  A
C2423      N2424   1.376       .  A
C2425      N2426   1.378       .  A
C2425      N2430   1.359       .  A
C2427      N2428   1.355       .  A
C2429      N2430   1.351       .  A
C2429      C2453   1.467       .  S
Zr2431     O2433   2.454       .  S
Zr2431     O2437   2.467       .  S
Zr2431     O2440   2.357       .  S
Zr2431     O2442   2.404       .  S
Zr2431     O2432   2.394       .  S
O2432      H2488   0.984       .  S
O2433      C2453   1.284       .  A
O2434      C2455   1.288       .  A
O2435     Zr2445   2.454       .  S
O2435      C2454   1.286       .  A
O2436     Zr2444   2.467       .  S
O2436      C2455   1.291       .  A
O2437      C2454   1.293       .  A
O2438     Zr2446   2.393       .  S
O2439     Zr2444   2.409       .  S
O2440     Zr2445   2.396       .  S
O2440      H2475   0.965       .  S
O2441     Zr2444   2.406       .  S
O2441     Zr4957   2.391   1_455  S
O2441      H2478   0.964       .  S
O2442     Zr2445   2.404       .  S
O2442     Zr4645   2.397   1_455  S
Zr2443     O2462   2.446       .  S
Zr2443     O2458   2.473       .  S
Zr2443     O4633   2.388   1_556  S
Zr2443     O4946   2.398       .  S
Zr2443     O2468   2.424       .  S
Zr2444     O3081   2.476   1_465  S
Zr2444     O4947   2.388   1_455  S
Zr2444     O4959   2.433   1_455  S
Zr2445     O3095   2.469   1_465  S
Zr2445     O4948   2.397   1_455  S
Zr2445     O4943   2.427   1_455  S
Zr2446     O2449   2.382       .  S
Zr2446     O2472   2.445       .  S
Zr2446     O2473   2.427       .  S
O2447     Zr4941   2.428       .  S
O2447      H2484   0.988       .  S
O2448      H2493   0.988       .  S
O2449     Zr4627   2.388   1_455  S
O2450     Zr4939   2.398   1_455  S
O2450      H2476   0.962       .  S
O2451     Zr4940   2.388       .  S
O2451     Zr2461   2.377       .  S
O2452     Zr4941   2.397       .  S
O2452      H2477   0.966       .  S
O2456      H2492   0.990       .  S
O2457     Zr4316   2.476       .  S
O2457      C2459   1.290       .  A
O2458      C2459   1.294       .  A
O2460     Zr2461   2.445       .  S
O2460      H2489   0.991       .  S
Zr2461     O2466   2.395       .  S
Zr2461     O4937   2.392       .  S
Zr2461     O4626   2.397   1_556  S
Zr2461     O2464   2.423       .  S
O2463     Zr4940   2.434       .  S
O2463      H2480   0.989       .  S
O2463      H2495   0.985       .  S
O2464      H2481   0.990       .  S
O2465      H2494   0.987       .  S
O2466      C2467   1.273   1_565  A
O2468      H2491   0.989       .  S
O2469      H2483   0.989       .  S
O2469      H2490   0.989       .  S
O2470      C2474   1.287       .  A
O2471     Zr4317   2.469       .  S
O2471      C2474   1.291       .  A
O2472      H2482   0.991       .  S
O2473      H2486   0.988       .  S
C2497      N2498   1.380       .  A
C2497      N2502   1.359       .  A
C2497      C2605   1.482       .  S
N2498      C2499   1.377       .  A
C2499      N2500   1.355       .  A
C2499      C2771   1.499       .  S
N2500      C2501   1.356       .  A
C2501      N2502   1.350       .  A
C2501      C2539   1.465       .  S
Zr2503     O2505   2.455       .  S
Zr2503     O2506   2.447       .  S
Zr2503     O2509   2.470       .  S
Zr2503     O2511   2.364       .  S
Zr2503     O2512   2.357       .  S
Zr2503     O2513   2.393       .  S
Zr2503     O2514   2.404       .  S
Zr2503     O4376   2.392   1_545  S
O2504     Zr3127   2.392       .  S
O2504      H2560   0.984       .  S
O2504      H2568   0.984       .  S
O2505      C2525   1.285       .  A
O2506      C2527   1.288       .  A
O2507     Zr2517   2.459       .  S
O2507      C2526   1.286       .  A
O2508     Zr2516   2.466       .  S
O2508      C2527   1.291       .  A
O2509      C2526   1.294       .  A
O2510     Zr2518   2.394       .  S
O2510      C2525   1.271       .  A
O2511     Zr2516   2.408       .  S
O2511     Zr2518   2.362       .  S
O2512     Zr2517   2.397       .  S
O2512     Zr2518   2.363       .  S
O2512      H2547   0.965       .  S
O2513     Zr2516   2.405       .  S
O2513     Zr2533   2.393       .  S
O2513      H2550   0.964       .  S
O2514     Zr2517   2.403       .  S
O2514     Zr2533   2.398       .  S
Zr2515     O2534   2.447       .  S
Zr2515     O2542   2.439       .  S
Zr2515     O2530   2.474       .  S
Zr2515     O2521   2.388       .  S
Zr2515     O2522   2.399       .  S
Zr2515     O2523   2.366       .  S
Zr2515     O2524   2.391       .  S
Zr2515     O2540   2.424       .  S
Zr2516     O2529   2.473       .  S
Zr2516     O2522   2.402       .  S
Zr2516     O2523   2.390       .  S
Zr2516     O2535   2.434       .  S
Zr2516     O2528   2.420       .  S
Zr2517     O2543   2.472       .  S
Zr2517     O2521   2.372       .  S
Zr2517     O2524   2.399       .  S
Zr2517     O2519   2.429       .  S
Zr2517     O2541   2.427       .  S
Zr2518     O2521   2.381       .  S
Zr2518     O2522   2.395       .  S
Zr2518     O2544   2.444       .  S
Zr2518     O2545   2.425       .  S
Zr2518     O2520   2.448       .  S
O2519      H2556   0.988       .  S
O2520      H2551   0.990       .  S
O2520      H2565   0.988       .  S
O2522      H2548   0.962       .  S
O2523     Zr2533   2.377       .  S
O2524     Zr2533   2.363       .  S
O2524      H2549   0.966       .  S
C2525      C2573   1.467       .  S
C2526      C2739   1.498       .  S
C2527      C2647   1.482       .  S
O2528      H2564   0.990       .  S
O2529      C2531   1.290       .  A
O2530      C2531   1.294       .  A
C2531      C2735   1.497       .  S
O2532     Zr3157   2.445       .  S
O2532      H2561   0.991       .  S
Zr2533     O2538   2.396       .  S
Zr2533     O4404   2.444       .  S
Zr2533     O2536   2.423       .  S
Zr2533     O2537   2.444       .  S
O2534      C2539   1.286       .  A
O2535      H2552   0.989       .  S
O2535      H2567   0.984       .  S
O2536      H2553   0.990       .  S
O2537      H2557   0.990       .  S
O2537      H2566   0.987       .  S
O2538      C2539   1.273       .  A
O2540      H2559   0.988       .  S
O2540      H3187   0.989       .  S
O2541      H2555   0.989       .  S
O2541      H2562   0.989       .  S
O2542      C2546   1.288       .  A
O2543      C2546   1.292       .  A
O2544      H2554   0.990       .  S
O2545      H2558   0.988       .  S
C2546      C2575   1.482       .  S
H2563      O4412   0.989       .  S
C2569      N2570   1.377       .  A
C2569      N2574   1.359       .  A
C2569      C2624   1.480       .  S
N2570      C2571   1.375       .  A
C2571      N2572   1.355       .  A
C2571      C2766   1.495       .  S
N2572      C2573   1.356       .  A
C2573      N2574   1.351       .  A
C2575      N2576   1.378       .  A
C2575      N2580   1.359       .  A
N2576      C3201   1.376       .  A
C2577      N4448   1.376   1_545  A
C2577      N2578   1.355   1_545  A
C2577      C2682   1.498       .  S
N2578      C4451   1.356       .  A
C2579      N3202   1.356       .  A
C2579      N2580   1.351       .  A
C2579      C2603   1.467       .  S
Zr2581     O2583   2.454       .  S
Zr2581     O2584   2.447       .  S
Zr2581     O2587   2.468       .  S
Zr2581     O2589   2.365       .  S
Zr2581     O2590   2.357       .  S
Zr2581     O2582   2.392       .  S
O2582      H2638   0.984       .  S
O2582      H2646   0.985       .  S
O2583      C2603   1.284       .  A
O2584      C2605   1.288       .  A
O2585      C2604   1.286       .  A
O2586      C2605   1.291       .  A
O2587      C2604   1.293       .  A
O2588     Zr2596   2.392       .  S
O2588      C4475   1.271   1_545  A
O2589     Zr3220   2.363       .  S
O2590     Zr3220   2.363       .  S
O2590      H2625   0.965       .  S
O2591     Zr2594   2.406       .  S
O2591     Zr2611   2.392       .  S
O2591      H2628   0.964       .  S
O2592     Zr2595   2.404       .  S
O2592     Zr2611   2.397       .  S
Zr2593     O2612   2.447       .  S
Zr2593     O2620   2.435       .  S
Zr2593     O2608   2.473       .  S
Zr2593     O2599   2.388       .  S
Zr2593     O2600   2.398       .  S
Zr2593     O4473   2.367   1_545  S
Zr2593     O4474   2.391   1_545  S
Zr2593     O2618   2.425       .  S
Zr2594     O3231   2.475       .  S
Zr2594     O3224   2.403       .  S
Zr2594     O2601   2.388       .  S
Zr2594     O2613   2.434       .  S
Zr2595     O3245   2.469       .  S
Zr2595     O3223   2.371       .  S
Zr2595     O2602   2.397       .  S
Zr2595     O2597   2.428       .  S
Zr2596     O4461   2.363   1_545  S
Zr2596     O4462   2.363   1_545  S
Zr2596     O2622   2.445       .  S
Zr2596     O2623   2.427       .  S
Zr2596     O2598   2.448       .  S
O2597      H2634   0.988       .  S
O2598      H2629   0.990       .  S
O2598      H2643   0.988       .  S
O2599     Zr4467   2.371   1_545  S
O2600     Zr4466   2.402   1_545  S
O2600      H2626   0.962       .  S
O2601     Zr3217   2.367       .  S
O2601     Zr2611   2.378       .  S
O2602     Zr3217   2.391       .  S
O2602     Zr2611   2.364       .  S
O2602      H2627   0.966       .  S
C2603      O3212   1.271       .  A
C2604      C2657   1.495       .  S
O2606      H2642   0.990       .  S
O2607     Zr4466   2.475   1_545  S
O2607      C2609   1.290       .  A
O2608      C2609   1.294       .  A
C2609      C2729   1.499       .  S
O2610     Zr2611   2.445       .  S
O2610      H2639   0.991       .  S
Zr2611     O2616   2.394       .  S
Zr2611     O2614   2.422       .  S
Zr2611     O2615   2.445       .  S
O2612      C4489   1.286       .  A
O2613      H2630   0.989       .  S
O2613      H2645   0.985       .  S
O2614      H2631   0.990       .  S
O2615      H2635   0.990       .  S
O2615      H2644   0.987       .  S
O2616      C2617   1.273       .  A
C2617      C3273   1.464       .  S
C2617      O3236   1.286       .  A
O2618      H2637   0.988       .  S
O2618      H2641   0.989       .  S
O2619      H2633   0.989   1_545  S
O2619      H2640   0.989       .  S
O2620      C2624   1.287       .  A
O2621     Zr4467   2.469   1_545  S
O2621      C2624   1.291       .  A
O2622      H2632   0.991       .  S
O2623      H2636   0.988       .  S
C2647      N2648   1.359       .  A
C2647      N4524   1.379   1_545  A
N2648      C2649   1.350       .  A
C2649      N4522   1.355   1_545  A
C2649      C4489   1.464       .  S
N2650      C3273   1.355       .  A
N2650      C2651   1.355       .  A
C2651      N2652   1.377       .  A
C2651      C2687   1.497       .  S
N2652      C3271   1.379       .  A
C2653      N2654   1.359       .  A
C2653      N2658   1.377       .  A
C2653      C2786   1.480       .  S
N2654      C2655   1.351       .  A
C2655      N2656   1.356       .  A
C2655      C2681   1.467       .  S
N2656      C2657   1.355       .  A
C2657      N2658   1.375       .  A
Zr2659     O2661   2.455       .  S
Zr2659     O2974   2.447   1_554  S
Zr2659     O2665   2.470       .  S
Zr2659     O2979   2.365   1_554  S
Zr2659     O2668   2.357       .  S
Zr2659     O2981   2.393   1_554  S
Zr2659     O2670   2.404       .  S
Zr2659     O4532   2.392   1_545  S
O2660     Zr3283   2.392       .  S
O2660      H2716   0.984       .  S
O2660      H3036   0.984       .  S
O2661      C2681   1.285       .  A
O2662     Zr2971   2.447       .  S
O2662      C2683   1.288       .  A
O2663     Zr2673   2.458       .  S
O2663      C2682   1.286       .  A
O2664     Zr2672   2.466       .  S
O2664      C2683   1.291       .  A
O2665      C2682   1.294       .  A
O2666     Zr2674   2.395       .  S
O2666      C2681   1.272       .  A
O2667     Zr2971   2.365       .  S
O2667     Zr2672   2.409       .  S
O2667     Zr2986   2.362       .  S
O2668     Zr2673   2.397       .  S
O2668     Zr2674   2.363       .  S
O2668      H2703   0.965       .  S
O2669     Zr2971   2.393       .  S
O2669     Zr2672   2.405       .  S
O2669     Zr2689   2.393       .  S
O2669      H2706   0.964       .  S
O2670     Zr2673   2.403       .  S
O2670     Zr3001   2.398   1_554  S
Zr2671     O2690   2.448       .  S
Zr2671     O3010   2.440       .  S
Zr2671     O2686   2.474       .  S
Zr2671     O2989   2.387       .  S
Zr2671     O2678   2.399       .  S
Zr2671     O2679   2.366       .  S
Zr2671     O2992   2.390       .  S
Zr2671     O2696   2.423       .  S
Zr2672     O2685   2.473       .  S
Zr2672     O2678   2.402       .  S
Zr2672     O2679   2.389       .  S
Zr2672     O2691   2.434       .  S
Zr2672     O2684   2.418       .  S
Zr2673     O2699   2.471       .  S
Zr2673     O2677   2.372       .  S
Zr2673     O2680   2.398       .  S
Zr2673     O2675   2.429       .  S
Zr2673     O2697   2.427       .  S
Zr2674     O2979   2.362   1_554  S
Zr2674     O2677   2.381       .  S
Zr2674     O2990   2.396   1_554  S
Zr2674     O2700   2.445       .  S
Zr2674     O2701   2.426       .  S
Zr2674     O2988   2.448   1_554  S
O2675      H2712   0.988       .  S
O2676     Zr2986   2.449       .  S
O2676      H3019   0.990       .  S
O2676      H2721   0.988       .  S
O2677     Zr2983   2.388   1_554  S
O2678     Zr2986   2.396       .  S
O2678      H2704   0.962       .  S
O2679     Zr2689   2.377       .  S
O2680     Zr2983   2.390   1_554  S
O2680     Zr3001   2.363   1_554  S
O2680      H2705   0.966       .  S
C2683      C2731   1.482       .  S
O2684      H2720   0.990       .  S
O2685      C2687   1.290       .  A
O2686      C2687   1.295       .  A
O2688     Zr3313   2.444       .  S
O2688      H2717   0.991       .  S
Zr2689     O2694   2.396       .  S
Zr2689     O2982   2.398       .  S
Zr2689     O2992   2.363       .  S
Zr2689     O4560   2.444       .  S
Zr2689     O2692   2.423       .  S
Zr2689     O3005   2.444       .  S
O2690      C2695   1.286       .  A
O2691      H2708   0.989       .  S
O2691      H2723   0.984       .  S
O2692      H2709   0.990       .  S
O2693     Zr3001   2.444   1_554  S
O2693      H3025   0.990       .  S
O2693      H2722   0.987       .  S
O2694      C2695   1.273       .  A
C2695      C2727   1.465       .  S
O2696      H3027   0.988       .  S
O2696      H3343   0.989       .  S
O2697      H2711   0.989       .  S
O2697      H2718   0.989       .  S
O2698     Zr2983   2.441   1_554  S
O2698      C2702   1.288       .  A
O2699      C2702   1.292       .  A
O2700      H2710   0.990       .  S
O2701      H2714   0.988       .  S
C2702      C2737   1.483       .  S
H2707      O2988   0.990   1_554  S
H2713      O3005   0.990       .  S
H2715      O3008   0.988   1_554  S
H2719      O4568   0.989       .  S
H2724      O2972   0.984       .  S
C2725      N2726   1.359       .  A
C2725      N2730   1.379       .  A
C2725      C2767   1.482       .  S
N2726      C2727   1.350       .  A
C2727      N2728   1.356       .  A
N2728      C2729   1.355       .  A
C2729      N2730   1.377       .  A
C2731      N2732   1.359       .  A
C2731      N4608   1.379   1_545  A
N2732      C2733   1.350       .  A
C2733      N4606   1.355   1_545  A
C2733      C4651   1.464       .  S
N2734      C3357   1.355       .  A
N2734      C2735   1.355       .  A
C2735      N2736   1.376       .  A
N2736      C3355   1.379       .  A
C2737      N2738   1.378       .  A
C2737      N2742   1.359       .  A
N2738      C3363   1.376       .  A
C2739      N4610   1.376   1_545  A
C2739      N2740   1.355   1_545  A
N2740      C4613   1.356       .  A
C2741      N3364   1.356       .  A
C2741      N2742   1.351       .  A
C2741      C2765   1.467       .  S
Zr2743     O2745   2.454       .  S
Zr2743     O3058   2.446   1_554  S
Zr2743     O2749   2.468       .  S
Zr2743     O3063   2.365   1_554  S
Zr2743     O2752   2.357       .  S
Zr2743     O3065   2.393   1_554  S
Zr2743     O2754   2.403       .  S
Zr2743     O2744   2.393       .  S
O2744      H2800   0.984       .  S
O2744      H3120   0.985       .  S
O2745      C2765   1.284       .  A
O2746     Zr3055   2.446       .  S
O2746      C2767   1.288       .  A
O2747     Zr2757   2.455       .  S
O2747      C2766   1.286       .  A
O2748     Zr2756   2.467       .  S
O2748      C2767   1.291       .  A
O2749      C2766   1.293       .  A
O2750     Zr2758   2.393       .  S
O2750      C4637   1.271   1_545  A
O2751     Zr3055   2.366       .  S
O2751     Zr2756   2.409       .  S
O2751     Zr3694   2.363       .  S
O2752     Zr2757   2.396       .  S
O2752     Zr3382   2.363       .  S
O2752      H2787   0.965       .  S
O2753     Zr3055   2.393       .  S
O2753     Zr2756   2.406       .  S
O2753      H2790   0.964       .  S
O2754     Zr2757   2.404       .  S
Zr2755     O2774   2.447       .  S
Zr2755     O3094   2.436       .  S
Zr2755     O2770   2.474       .  S
Zr2755     O4635   2.366   1_545  S
Zr2755     O4948   2.391   1_545  S
Zr2755     O2780   2.424       .  S
Zr2756     O3386   2.403       .  S
Zr2756     O3392   2.419       .  S
Zr2757     O3385   2.371       .  S
Zr2757     O3405   2.428       .  S
Zr2758     O4935   2.363   1_544  S
Zr2758     O4624   2.363   1_545  S
Zr2758     O2761   2.381       .  S
Zr2758     O3074   2.396   1_554  S
Zr2758     O2784   2.445       .  S
Zr2758     O2785   2.427       .  S
Zr2758     O3072   2.448   1_554  S
O2759      H2796   0.988       .  S
O2760     Zr3070   2.449       .  S
O2760      H3103   0.990       .  S
O2760      H2805   0.988       .  S
O2761     Zr4629   2.371   1_545  S
O2762     Zr4628   2.403   1_545  S
O2762     Zr3070   2.397       .  S
O2762      H2788   0.962       .  S
O2763     Zr3379   2.366       .  S
O2763     Zr2773   2.378       .  S
O2764     Zr3691   2.390   1_554  S
O2764     Zr3085   2.364   1_554  S
O2764      H2789   0.966       .  S
C2765      O3374   1.271       .  A
O2768     Zr4628   2.419   1_545  S
O2768      H2804   0.990       .  S
O2769      C2771   1.290       .  A
O2770      C2771   1.295       .  A
O2772     Zr2773   2.445       .  S
O2772      H2801   0.991       .  S
Zr2773     O2778   2.395       .  S
Zr2773     O3076   2.364       .  S
Zr2773     O2776   2.423       .  S
Zr2773     O3089   2.444       .  S
O2774      C4651   1.286       .  A
O2775      H2792   0.989       .  S
O2775      H2807   0.985       .  S
O2776      H2793   0.990       .  S
O2777     Zr3085   2.445   1_554  S
O2777      H3109   0.990       .  S
O2777      H2806   0.987       .  S
O2778      C2779   1.273       .  A
C2779      C3357   1.464       .  S
C2779      O3398   1.286       .  A
O2780      H3111   0.988       .  S
O2780      H2803   0.989       .  S
O2781     Zr4629   2.428   1_545  S
O2781      H2795   0.989   1_545  S
O2781      H2802   0.989       .  S
O2782     Zr3067   2.436   1_554  S
O2782      C2786   1.287       .  A
O2783      C2786   1.291       .  A
O2784      H2794   0.991       .  S
O2785      H2798   0.988       .  S
H2791      O3072   0.990   1_554  S
H2797      O3089   0.990       .  S
H2799      O3092   0.988   1_554  S
H2808      O3056   0.985       .  S
C2809      N2810   1.379       .  A
C2809      N2814   1.359       .  A
C2809      C2917   1.482       .  S
N2810      C2811   1.377       .  A
C2811      N2812   1.355       .  A
C2811      C3083   1.498       .  S
N2812      C2813   1.356       .  A
C2813      N2814   1.350       .  A
C2813      C2851   1.464       .  S
Zr2815     O2817   2.454       .  S
Zr2815     O2818   2.447       .  S
Zr2815     O2821   2.470       .  S
Zr2815     O2823   2.365       .  S
Zr2815     O2824   2.357       .  S
Zr2815     O2825   2.393       .  S
Zr2815     O2826   2.404       .  S
Zr2815     O4688   2.392   1_545  S
O2816     Zr3439   2.392       .  S
O2816      H2872   0.984       .  S
O2816      H2880   0.984       .  S
O2817      C2837   1.285       .  A
O2818      C2839   1.288       .  A
O2819     Zr2829   2.458       .  S
O2819      C2838   1.286       .  A
O2820     Zr2828   2.466       .  S
O2820      C2839   1.291       .  A
O2821      C2838   1.294       .  A
O2822     Zr2830   2.393       .  S
O2822      C2837   1.271       .  A
O2823     Zr2828   2.408       .  S
O2823     Zr2830   2.362       .  S
O2824     Zr2829   2.397       .  S
O2824     Zr2830   2.363       .  S
O2824      H2859   0.965       .  S
O2825     Zr2828   2.405       .  S
O2825     Zr2845   2.393       .  S
O2825      H2862   0.964       .  S
O2826     Zr2829   2.403       .  S
O2826     Zr2845   2.398       .  S
Zr2827     O2846   2.446       .  S
Zr2827     O2854   2.440       .  S
Zr2827     O2842   2.474       .  S
Zr2827     O2833   2.387       .  S
Zr2827     O2834   2.399       .  S
Zr2827     O2835   2.367       .  S
Zr2827     O2836   2.391       .  S
Zr2827     O2852   2.424       .  S
Zr2828     O2841   2.473       .  S
Zr2828     O2834   2.402       .  S
Zr2828     O2835   2.389       .  S
Zr2828     O2847   2.434       .  S
Zr2828     O2840   2.418       .  S
Zr2829     O2855   2.472       .  S
Zr2829     O2833   2.371       .  S
Zr2829     O2836   2.398       .  S
Zr2829     O2831   2.429       .  S
Zr2829     O2853   2.427       .  S
Zr2830     O2833   2.381       .  S
Zr2830     O2834   2.395       .  S
Zr2830     O2856   2.444       .  S
Zr2830     O2857   2.425       .  S
Zr2830     O2832   2.448       .  S
O2831      H2868   0.988       .  S
O2832      H2863   0.990       .  S
O2832      H2877   0.988       .  S
O2834      H2860   0.962       .  S
O2835     Zr2845   2.377       .  S
O2836     Zr2845   2.363       .  S
O2836      H2861   0.966       .  S
C2837      C2885   1.467       .  S
C2838      C3051   1.498       .  S
C2839      C2959   1.482       .  S
O2840      H2876   0.990       .  S
O2841      C2843   1.290       .  A
O2842      C2843   1.294       .  A
C2843      C3047   1.497       .  S
O2844     Zr3469   2.444       .  S
O2844      H2873   0.991       .  S
Zr2845     O2850   2.396       .  S
Zr2845     O4716   2.444       .  S
Zr2845     O2848   2.423       .  S
Zr2845     O2849   2.444       .  S
O2846      C2851   1.286       .  A
O2847      H2864   0.989       .  S
O2847      H2879   0.984       .  S
O2848      H2865   0.990       .  S
O2849      H2869   0.990       .  S
O2849      H2878   0.987       .  S
O2850      C2851   1.273       .  A
O2852      H2871   0.988       .  S
O2852      H3499   0.989       .  S
O2853      H2867   0.989       .  S
O2853      H2874   0.989       .  S
O2854      C2858   1.288       .  A
O2855      C2858   1.292       .  A
O2856      H2866   0.990       .  S
O2857      H2870   0.988       .  S
C2858      C2887   1.483       .  S
H2875      O4724   0.989       .  S
C2881      N2882   1.377       .  A
C2881      N2886   1.359       .  A
C2881      C2936   1.480       .  S
N2882      C2883   1.375       .  A
C2883      N2884   1.355       .  A
C2883      C3078   1.495       .  S
N2884      C2885   1.356       .  A
C2885      N2886   1.351       .  A
C2887      N2888   1.378       .  A
C2887      N2892   1.359       .  A
N2888      C3513   1.376       .  A
C2889      N4760   1.376   1_545  A
C2889      N2890   1.355   1_545  A
C2889      C2994   1.498       .  S
N2890      C4763   1.357       .  A
C2891      N3514   1.356       .  A
C2891      N2892   1.351       .  A
C2891      C2915   1.467       .  S
Zr2893     O2895   2.454       .  S
Zr2893     O2896   2.445       .  S
Zr2893     O2899   2.467       .  S
Zr2893     O2901   2.365       .  S
Zr2893     O2902   2.357       .  S
Zr2893     O2894   2.393       .  S
O2894      H2950   0.984       .  S
O2894      H2958   0.985       .  S
O2895      C2915   1.284       .  A
O2896      C2917   1.288       .  A
O2897      C2916   1.286       .  A
O2898      C2917   1.291       .  A
O2899      C2916   1.293       .  A
O2900     Zr2908   2.392       .  S
O2900      C4787   1.271   1_545  A
O2901     Zr3532   2.363       .  S
O2902     Zr3532   2.363       .  S
O2902      H2937   0.965       .  S
O2903     Zr2906   2.406       .  S
O2903     Zr2923   2.392       .  S
O2903      H2940   0.964       .  S
O2904     Zr2907   2.404       .  S
O2904     Zr2923   2.396       .  S
Zr2905     O2924   2.447       .  S
Zr2905     O2932   2.436       .  S
Zr2905     O2920   2.473       .  S
Zr2905     O2911   2.388       .  S
Zr2905     O2912   2.398       .  S
Zr2905     O4785   2.366   1_545  S
Zr2905     O4786   2.390   1_545  S
Zr2905     O2930   2.424       .  S
Zr2906     O3543   2.475       .  S
Zr2906     O3536   2.402       .  S
Zr2906     O2913   2.388       .  S
Zr2906     O2925   2.433       .  S
Zr2907     O3557   2.470       .  S
Zr2907     O3535   2.371       .  S
Zr2907     O2914   2.397       .  S
Zr2907     O2909   2.428       .  S
Zr2908     O4773   2.363   1_545  S
Zr2908     O4774   2.363   1_545  S
Zr2908     O2934   2.445       .  S
Zr2908     O2935   2.427       .  S
Zr2908     O2910   2.448       .  S
O2909      H2946   0.988       .  S
O2910      H2941   0.990       .  S
O2910      H2955   0.988       .  S
O2911     Zr4779   2.372   1_545  S
O2912     Zr4778   2.403   1_545  S
O2912      H2938   0.962       .  S
O2913     Zr3529   2.366       .  S
O2913     Zr2923   2.378       .  S
O2914     Zr3529   2.390       .  S
O2914     Zr2923   2.364       .  S
O2914      H2939   0.966       .  S
C2915      O3524   1.271       .  A
C2916      C2969   1.495       .  S
O2918      H2954   0.990       .  S
O2919     Zr4778   2.476   1_545  S
O2919      C2921   1.290       .  A
O2920      C2921   1.294       .  A
C2921      C3041   1.498       .  S
O2922     Zr2923   2.445       .  S
O2922      H2951   0.991       .  S
Zr2923     O2928   2.395       .  S
Zr2923     O2926   2.422       .  S
Zr2923     O2927   2.445       .  S
O2924      C4801   1.286       .  A
O2925      H2942   0.989       .  S
O2925      H2957   0.984       .  S
O2926      H2943   0.990       .  S
O2927      H2947   0.990       .  S
O2927      H2956   0.987       .  S
O2928      C2929   1.273       .  A
C2929      C3585   1.464       .  S
C2929      O3548   1.286       .  A
O2930      H2949   0.988       .  S
O2930      H2953   0.989       .  S
O2931      H2945   0.989   1_545  S
O2931      H2952   0.989       .  S
O2932      C2936   1.287       .  A
O2933     Zr4779   2.469   1_545  S
O2933      C2936   1.291       .  A
O2934      H2944   0.991       .  S
O2935      H2948   0.988       .  S
C2959      N2960   1.359       .  A
C2959      N4836   1.379   1_545  A
N2960      C2961   1.350       .  A
C2961      N4834   1.355   1_545  A
C2961      C4801   1.464       .  S
N2962      C3585   1.355       .  A
N2962      C2963   1.355       .  A
C2963      N2964   1.376       .  A
C2963      C2999   1.497       .  S
N2964      C3583   1.379       .  A
C2965      N2966   1.359       .  A
C2965      N2970   1.377       .  A
C2965      C3098   1.480       .  S
N2966      C2967   1.351       .  A
C2967      N2968   1.356       .  A
C2967      C2993   1.467       .  S
N2968      C2969   1.355       .  A
C2969      N2970   1.375       .  A
Zr2971     O2973   2.455       .  S
Zr2971     O2977   2.470       .  S
Zr2971     O2980   2.357       .  S
Zr2971     O2982   2.404       .  S
Zr2971     O4844   2.392   1_545  S
O2972     Zr3595   2.392       .  S
O2972      H3028   0.984       .  S
O2973      C2993   1.285       .  A
O2974      C2995   1.288       .  A
O2975     Zr2985   2.459       .  S
O2975      C2994   1.286       .  A
O2976     Zr2984   2.467       .  S
O2976      C2995   1.291       .  A
O2977      C2994   1.294       .  A
O2978     Zr2986   2.394       .  S
O2978      C2993   1.271       .  A
O2979     Zr2984   2.408       .  S
O2980     Zr2985   2.397       .  S
O2980     Zr2986   2.363       .  S
O2980      H3015   0.965       .  S
O2981     Zr2984   2.405       .  S
O2981     Zr3001   2.393       .  S
O2981      H3018   0.964       .  S
O2982     Zr2985   2.403       .  S
Zr2983     O3002   2.447       .  S
Zr2983     O2998   2.474       .  S
Zr2983     O2990   2.399       .  S
Zr2983     O2991   2.367       .  S
Zr2983     O3008   2.423       .  S
Zr2984     O2997   2.473       .  S
Zr2984     O2990   2.401       .  S
Zr2984     O2991   2.390       .  S
Zr2984     O3003   2.434       .  S
Zr2984     O2996   2.419       .  S
Zr2985     O3011   2.471       .  S
Zr2985     O2989   2.371       .  S
Zr2985     O2992   2.398       .  S
Zr2985     O2987   2.429       .  S
Zr2985     O3009   2.427       .  S
Zr2986     O2989   2.381       .  S
Zr2986     O3012   2.444       .  S
Zr2986     O3013   2.426       .  S
O2987      H3024   0.988       .  S
O2988      H3033   0.988       .  S
O2990      H3016   0.962       .  S
O2991     Zr3001   2.377       .  S
O2992      H3017   0.966       .  S
C2995      C3043   1.482       .  S
O2996      H3032   0.990       .  S
O2997      C2999   1.290       .  A
O2998      C2999   1.294       .  A
O3000     Zr3625   2.444       .  S
O3000      H3029   0.991       .  S
Zr3001     O3006   2.397       .  S
Zr3001     O4872   2.444       .  S
Zr3001     O3004   2.423       .  S
O3002      C3007   1.286       .  A
O3003      H3020   0.989       .  S
O3003      H3035   0.984       .  S
O3004      H3021   0.990       .  S
O3005      H3034   0.987       .  S
O3006      C3007   1.273       .  A
C3007      C3039   1.465       .  S
O3008      H3655   0.989       .  S
O3009      H3023   0.989       .  S
O3009      H3030   0.989       .  S
O3010      C3014   1.288       .  A
O3011      C3014   1.292       .  A
O3012      H3022   0.990       .  S
O3013      H3026   0.988       .  S
C3014      C3049   1.482       .  S
H3031      O4880   0.989       .  S
C3037      N3038   1.359       .  A
C3037      N3042   1.379       .  A
C3037      C3079   1.482       .  S
N3038      C3039   1.350       .  A
C3039      N3040   1.356       .  A
N3040      C3041   1.355       .  A
C3041      N3042   1.377       .  A
C3043      N3044   1.359       .  A
C3043      N4920   1.379   1_545  A
N3044      C3045   1.350       .  A
C3045      N4918   1.355   1_545  A
C3045      C4963   1.464       .  S
N3046      C3669   1.355       .  A
N3046      C3047   1.355       .  A
C3047      N3048   1.376       .  A
N3048      C3667   1.379       .  A
C3049      N3050   1.378       .  A
C3049      N3054   1.359       .  A
N3050      C3675   1.376       .  A
C3051      N4922   1.376   1_545  A
C3051      N3052   1.355   1_545  A
N3052      C4925   1.356       .  A
C3053      N3676   1.357       .  A
C3053      N3054   1.351       .  A
C3053      C3077   1.467       .  S
Zr3055     O3057   2.454       .  S
Zr3055     O3061   2.468       .  S
Zr3055     O3064   2.357       .  S
Zr3055     O3066   2.403       .  S
Zr3055     O3056   2.393       .  S
O3056      H3112   0.984       .  S
O3057      C3077   1.284       .  A
O3058      C3079   1.288       .  A
O3059     Zr3069   2.454       .  S
O3059      C3078   1.286       .  A
O3060     Zr3068   2.468       .  S
O3060      C3079   1.291       .  A
O3061      C3078   1.293       .  A
O3062     Zr3070   2.392       .  S
O3062      C4949   1.271   1_545  A
O3063     Zr3068   2.409       .  S
O3063     Zr3382   2.363   1_556  S
O3064     Zr3069   2.396       .  S
O3064     Zr3694   2.363       .  S
O3064      H3099   0.965       .  S
O3065     Zr3068   2.406       .  S
O3065      H3102   0.964       .  S
O3066     Zr3069   2.404       .  S
Zr3067     O3086   2.447       .  S
Zr3067     O3082   2.473       .  S
Zr3067     O4947   2.366   1_545  S
Zr3067     O4636   2.390   1_546  S
Zr3067     O3092   2.424       .  S
Zr3068     O3698   2.402       .  S
Zr3068     O3704   2.418       .  S
Zr3069     O3697   2.371       .  S
Zr3069     O3717   2.427       .  S
Zr3070     O4623   2.363   1_545  S
Zr3070     O4936   2.363   1_545  S
Zr3070     O3073   2.382       .  S
Zr3070     O3096   2.445       .  S
Zr3070     O3097   2.427       .  S
O3071      H3108   0.988       .  S
O3072      H3117   0.988       .  S
O3073     Zr4941   2.372   1_545  S
O3074     Zr4940   2.402   1_545  S
O3074      H3100   0.962       .  S
O3075     Zr3691   2.366       .  S
O3075     Zr3085   2.378       .  S
O3076     Zr3379   2.390       .  S
O3076      H3101   0.966       .  S
C3077      O3686   1.271       .  A
O3080     Zr4940   2.418   1_545  S
O3080      H3116   0.990       .  S
O3081      C3083   1.290       .  A
O3082      C3083   1.294       .  A
O3084     Zr3085   2.445       .  S
O3084      H3113   0.991       .  S
Zr3085     O3090   2.395       .  S
Zr3085     O3088   2.423       .  S
O3086      C4963   1.286       .  A
O3087      H3104   0.989       .  S
O3087      H3119   0.985       .  S
O3088      H3105   0.990       .  S
O3089      H3118   0.987       .  S
O3090      C3091   1.273       .  A
C3091      C3669   1.464       .  S
C3091      O3710   1.286       .  A
O3092      H3115   0.989       .  S
O3093     Zr4941   2.427   1_545  S
O3093      H3107   0.989   1_545  S
O3093      H3114   0.989       .  S
O3094      C3098   1.287       .  A
O3095      C3098   1.291       .  A
O3096      H3106   0.991       .  S
O3097      H3110   0.988       .  S
C3121      N3122   1.379       .  A
C3121      N3126   1.359       .  A
C3121      C3229   1.482       .  S
N3122      C3123   1.377       .  A
C3123      N3124   1.355       .  A
C3123      C3395   1.499       .  S
N3124      C3125   1.356       .  A
C3125      N3126   1.350       .  A
C3125      C3163   1.465       .  S
Zr3127     O3129   2.454       .  S
Zr3127     O3130   2.447       .  S
Zr3127     O3133   2.470       .  S
Zr3127     O3135   2.364       .  S
Zr3127     O3136   2.357       .  S
Zr3127     O3137   2.393       .  S
Zr3127     O3138   2.404       .  S
O3128     Zr3751   2.392       .  S
O3128      H3184   0.984       .  S
O3128      H3192   0.984       .  S
O3129      C3149   1.285       .  A
O3130      C3151   1.288       .  A
O3131     Zr3141   2.458       .  S
O3131      C3150   1.286       .  A
O3132     Zr3140   2.466       .  S
O3132      C3151   1.291       .  A
O3133      C3150   1.294       .  A
O3134     Zr3142   2.393       .  S
O3134      C3149   1.271       .  A
O3135     Zr3140   2.408       .  S
O3135     Zr3142   2.362       .  S
O3136     Zr3141   2.397       .  S
O3136     Zr3142   2.363       .  S
O3136      H3171   0.965       .  S
O3137     Zr3140   2.405       .  S
O3137     Zr3157   2.393       .  S
O3137      H3174   0.964       .  S
O3138     Zr3141   2.403       .  S
O3138     Zr3157   2.398       .  S
Zr3139     O3158   2.447       .  S
Zr3139     O3166   2.439       .  S
Zr3139     O3154   2.474       .  S
Zr3139     O3145   2.388       .  S
Zr3139     O3146   2.399       .  S
Zr3139     O3147   2.366       .  S
Zr3139     O3148   2.391       .  S
Zr3139     O3164   2.424       .  S
Zr3140     O3153   2.473       .  S
Zr3140     O3146   2.402       .  S
Zr3140     O3147   2.390       .  S
Zr3140     O3159   2.434       .  S
Zr3140     O3152   2.420       .  S
Zr3141     O3167   2.471       .  S
Zr3141     O3145   2.372       .  S
Zr3141     O3148   2.398       .  S
Zr3141     O3143   2.429       .  S
Zr3141     O3165   2.427       .  S
Zr3142     O3145   2.381       .  S
Zr3142     O3146   2.395       .  S
Zr3142     O3168   2.445       .  S
Zr3142     O3169   2.425       .  S
Zr3142     O3144   2.448       .  S
O3143      H3180   0.988       .  S
O3144      H3175   0.990       .  S
O3144      H3189   0.988       .  S
O3146      H3172   0.962       .  S
O3147     Zr3157   2.377       .  S
O3148     Zr3157   2.363       .  S
O3148      H3173   0.966       .  S
C3149      C3197   1.467       .  S
C3150      C3363   1.498       .  S
C3151      C3271   1.482       .  S
O3152      H3188   0.990       .  S
O3153      C3155   1.290       .  A
O3154      C3155   1.294       .  A
C3155      C3359   1.497       .  S
O3156     Zr3781   2.444       .  S
O3156      H3185   0.991       .  S
Zr3157     O3162   2.396       .  S
Zr3157     O3160   2.423       .  S
Zr3157     O3161   2.444       .  S
O3158      C3163   1.286       .  A
O3159      H3176   0.989       .  S
O3159      H3191   0.984       .  S
O3160      H3177   0.990       .  S
O3161      H3181   0.990       .  S
O3161      H3190   0.987       .  S
O3162      C3163   1.273       .  A
O3164      H3183   0.988       .  S
O3164      H3811   0.989       .  S
O3165      H3179   0.989       .  S
O3165      H3186   0.989       .  S
O3166      C3170   1.288       .  A
O3167      C3170   1.292       .  A
O3168      H3178   0.990       .  S
O3169      H3182   0.988       .  S
C3170      C3199   1.483       .  S
C3193      N3194   1.377       .  A
C3193      N3198   1.359       .  A
C3193      C3248   1.480       .  S
N3194      C3195   1.375       .  A
C3195      N3196   1.355       .  A
C3195      C3390   1.495       .  S
N3196      C3197   1.356       .  A
C3197      N3198   1.351       .  A
C3199      N3200   1.378       .  A
C3199      N3204   1.359       .  A
N3200      C3825   1.376       .  A
C3201      N3202   1.355       .  A
C3201      C3306   1.498       .  S
C3203      N3826   1.356       .  A
C3203      N3204   1.351       .  A
C3203      C3227   1.467       .  S
Zr3205     O3207   2.454       .  S
Zr3205     O3208   2.446       .  S
Zr3205     O3211   2.468       .  S
Zr3205     O3213   2.365       .  S
Zr3205     O3214   2.357       .  S
Zr3205     O3206   2.393       .  S
O3206      H3262   0.984       .  S
O3206      H3270   0.985       .  S
O3207      C3227   1.284       .  A
O3208      C3229   1.288       .  A
O3209      C3228   1.286       .  A
O3210      C3229   1.291       .  A
O3211      C3228   1.293       .  A
O3212     Zr3220   2.392       .  S
O3213     Zr3844   2.363       .  S
O3214     Zr3844   2.363       .  S
O3214      H3249   0.965       .  S
O3215     Zr3218   2.406       .  S
O3215     Zr3235   2.391       .  S
O3215      H3252   0.964       .  S
O3216     Zr3219   2.404       .  S
O3216     Zr3235   2.397       .  S
Zr3217     O3236   2.446       .  S
Zr3217     O3244   2.436       .  S
Zr3217     O3232   2.474       .  S
Zr3217     O3223   2.388       .  S
Zr3217     O3224   2.398       .  S
Zr3217     O3242   2.424       .  S
Zr3218     O3855   2.476       .  S
Zr3218     O3848   2.403       .  S
Zr3218     O3225   2.388       .  S
Zr3218     O3237   2.433       .  S
Zr3219     O3869   2.469       .  S
Zr3219     O3847   2.371       .  S
Zr3219     O3226   2.397       .  S
Zr3219     O3221   2.428       .  S
Zr3220     O3246   2.445       .  S
Zr3220     O3247   2.428       .  S
Zr3220     O3222   2.448       .  S
O3221      H3258   0.988       .  S
O3222      H3253   0.990       .  S
O3222      H3267   0.988       .  S
O3224      H3250   0.962       .  S
O3225     Zr3841   2.367       .  S
O3225     Zr3235   2.378       .  S
O3226     Zr3841   2.391       .  S
O3226     Zr3235   2.363       .  S
O3226      H3251   0.966       .  S
C3227      O3836   1.271       .  A
C3228      C3281   1.495       .  S
O3230      H3266   0.990       .  S
O3231      C3233   1.290       .  A
O3232      C3233   1.295       .  A
C3233      C3353   1.499       .  S
O3234     Zr3235   2.445       .  S
O3234      H3263   0.991       .  S
Zr3235     O3240   2.394       .  S
Zr3235     O3238   2.423       .  S
Zr3235     O3239   2.445       .  S
O3237      H3254   0.989       .  S
O3237      H3269   0.984       .  S
O3238      H3255   0.990       .  S
O3239      H3259   0.990       .  S
O3239      H3268   0.987       .  S
O3240      C3241   1.273       .  A
C3241      C3897   1.464       .  S
C3241      O3860   1.286       .  A
O3242      H3261   0.988       .  S
O3242      H3265   0.989       .  S
O3243      H3257   0.989       .  S
O3243      H3264   0.989       .  S
O3244      C3248   1.287       .  A
O3245      C3248   1.291       .  A
O3246      H3256   0.991       .  S
O3247      H3260   0.988       .  S
C3271      N3272   1.359       .  A
N3272      C3273   1.350       .  A
N3274      C3897   1.355       .  A
N3274      C3275   1.355       .  A
C3275      N3276   1.377       .  A
C3275      C3311   1.497       .  S
N3276      C3895   1.379       .  A
C3277      N3278   1.359       .  A
C3277      N3282   1.377       .  A
C3277      C3410   1.480       .  S
N3278      C3279   1.351       .  A
C3279      N3280   1.356       .  A
C3279      C3305   1.468       .  S
N3280      C3281   1.355       .  A
C3281      N3282   1.375       .  A
Zr3283     O3285   2.455       .  S
Zr3283     O3598   2.446   1_554  S
Zr3283     O3289   2.470       .  S
Zr3283     O3603   2.365   1_554  S
Zr3283     O3292   2.357       .  S
Zr3283     O3605   2.393   1_554  S
Zr3283     O3294   2.404       .  S
O3284     Zr3907   2.392       .  S
O3284      H3340   0.984       .  S
O3284      H3660   0.984       .  S
O3285      C3305   1.285       .  A
O3286     Zr3595   2.447       .  S
O3286      C3307   1.288       .  A
O3287     Zr3297   2.458       .  S
O3287      C3306   1.286       .  A
O3288     Zr3296   2.466       .  S
O3288      C3307   1.291       .  A
O3289      C3306   1.294       .  A
O3290     Zr3298   2.395       .  S
O3290      C3305   1.272       .  A
O3291     Zr3595   2.365       .  S
O3291     Zr3296   2.409       .  S
O3291     Zr3610   2.362       .  S
O3292     Zr3297   2.397       .  S
O3292     Zr3298   2.363       .  S
O3292      H3327   0.965       .  S
O3293     Zr3595   2.393       .  S
O3293     Zr3296   2.405       .  S
O3293     Zr3313   2.393       .  S
O3293      H3330   0.964       .  S
O3294     Zr3297   2.402       .  S
O3294     Zr3625   2.398   1_554  S
Zr3295     O3314   2.447       .  S
Zr3295     O3634   2.440       .  S
Zr3295     O3310   2.475       .  S
Zr3295     O3613   2.388       .  S
Zr3295     O3302   2.399       .  S
Zr3295     O3303   2.367       .  S
Zr3295     O3616   2.390       .  S
Zr3295     O3320   2.423       .  S
Zr3296     O3309   2.473       .  S
Zr3296     O3302   2.402       .  S
Zr3296     O3303   2.389       .  S
Zr3296     O3315   2.434       .  S
Zr3296     O3308   2.418       .  S
Zr3297     O3323   2.471       .  S
Zr3297     O3301   2.371       .  S
Zr3297     O3304   2.398       .  S
Zr3297     O3299   2.429       .  S
Zr3297     O3321   2.427       .  S
Zr3298     O3603   2.362   1_554  S
Zr3298     O3301   2.381       .  S
Zr3298     O3614   2.396   1_554  S
Zr3298     O3324   2.445       .  S
Zr3298     O3325   2.425       .  S
Zr3298     O3612   2.448   1_554  S
O3299      H3336   0.988       .  S
O3300     Zr3610   2.449       .  S
O3300      H3643   0.990       .  S
O3300      H3345   0.988       .  S
O3301     Zr3607   2.388   1_554  S
O3302     Zr3610   2.395       .  S
O3302      H3328   0.962       .  S
O3303     Zr3313   2.377       .  S
O3304     Zr3607   2.390   1_554  S
O3304     Zr3625   2.363   1_554  S
O3304      H3329   0.966       .  S
C3307      C3355   1.482       .  S
O3308      H3344   0.990       .  S
O3309      C3311   1.290       .  A
O3310      C3311   1.295       .  A
O3312     Zr3937   2.444       .  S
O3312      H3341   0.991       .  S
Zr3313     O3318   2.396       .  S
Zr3313     O3606   2.398       .  S
Zr3313     O3616   2.362       .  S
Zr3313     O3316   2.423       .  S
Zr3313     O3629   2.444       .  S
O3314      C3319   1.286       .  A
O3315      H3332   0.989       .  S
O3315      H3347   0.984       .  S
O3316      H3333   0.990       .  S
O3317     Zr3625   2.444   1_554  S
O3317      H3649   0.990       .  S
O3317      H3346   0.987       .  S
O3318      C3319   1.273       .  A
C3319      C3351   1.465       .  S
O3320      H3651   0.988       .  S
O3320      H3967   0.989       .  S
O3321      H3335   0.989       .  S
O3321      H3342   0.989       .  S
O3322     Zr3607   2.441   1_554  S
O3322      C3326   1.288       .  A
O3323      C3326   1.291       .  A
O3324      H3334   0.990       .  S
O3325      H3338   0.988       .  S
C3326      C3361   1.483       .  S
H3331      O3612   0.990   1_554  S
H3337      O3629   0.990       .  S
H3339      O3632   0.988   1_554  S
H3348      O3596   0.985       .  S
C3349      N3350   1.359       .  A
C3349      N3354   1.379       .  A
C3349      C3391   1.482       .  S
N3350      C3351   1.350       .  A
C3351      N3352   1.356       .  A
N3352      C3353   1.355       .  A
C3353      N3354   1.377       .  A
C3355      N3356   1.359       .  A
N3356      C3357   1.350       .  A
N3358      C3981   1.355       .  A
N3358      C3359   1.355       .  A
C3359      N3360   1.376       .  A
N3360      C3979   1.379       .  A
C3361      N3362   1.378       .  A
C3361      N3366   1.359       .  A
N3362      C3987   1.376       .  A
C3363      N3364   1.355       .  A
C3365      N3988   1.356       .  A
C3365      N3366   1.351       .  A
C3365      C3389   1.467       .  S
Zr3367     O3369   2.454       .  S
Zr3367     O3682   2.446   1_554  S
Zr3367     O3373   2.468       .  S
Zr3367     O3687   2.366   1_554  S
Zr3367     O3376   2.357       .  S
Zr3367     O3689   2.393   1_554  S
Zr3367     O3378   2.403       .  S
Zr3367     O3368   2.393       .  S
O3368      H3424   0.984       .  S
O3368      H3744   0.985       .  S
O3369      C3389   1.284       .  A
O3370     Zr3679   2.445       .  S
O3370      C3391   1.288       .  A
O3371     Zr3381   2.455       .  S
O3371      C3390   1.286       .  A
O3372     Zr3380   2.468       .  S
O3372      C3391   1.291       .  A
O3373      C3390   1.293       .  A
O3374     Zr3382   2.393       .  S
O3375     Zr3679   2.365       .  S
O3375     Zr3380   2.409       .  S
O3375     Zr4318   2.363       .  S
O3376     Zr3381   2.396       .  S
O3376     Zr4006   2.363       .  S
O3376      H3411   0.965       .  S
O3377     Zr3679   2.393       .  S
O3377     Zr3380   2.406       .  S
O3377      H3414   0.964       .  S
O3378     Zr3381   2.404       .  S
Zr3379     O3398   2.447       .  S
Zr3379     O3718   2.436       .  S
Zr3379     O3394   2.474       .  S
Zr3379     O3404   2.424       .  S
Zr3380     O4010   2.402       .  S
Zr3380     O4016   2.418       .  S
Zr3381     O4009   2.371       .  S
Zr3381     O4029   2.427       .  S
Zr3382     O3385   2.381       .  S
Zr3382     O3698   2.396   1_554  S
Zr3382     O3408   2.445       .  S
Zr3382     O3409   2.427       .  S
Zr3382     O3696   2.449   1_554  S
O3383      H3420   0.988       .  S
O3384     Zr3694   2.448       .  S
O3384      H3727   0.990       .  S
O3384      H3429   0.988       .  S
O3386     Zr3694   2.397       .  S
O3386      H3412   0.962       .  S
O3387     Zr4003   2.366       .  S
O3387     Zr3397   2.378       .  S
O3388     Zr4315   2.390   1_554  S
O3388     Zr3709   2.364   1_554  S
O3388      H3413   0.966       .  S
C3389      O3998   1.271       .  A
O3392      H3428   0.990       .  S
O3393      C3395   1.290       .  A
O3394      C3395   1.295       .  A
O3396     Zr3397   2.445       .  S
O3396      H3425   0.991       .  S
Zr3397     O3402   2.396       .  S
Zr3397     O3700   2.364       .  S
Zr3397     O3400   2.422       .  S
Zr3397     O3713   2.444       .  S
O3399      H3416   0.989       .  S
O3399      H3431   0.985       .  S
O3400      H3417   0.990       .  S
O3401     Zr3709   2.445   1_554  S
O3401      H3733   0.990       .  S
O3401      H3430   0.987       .  S
O3402      C3403   1.274       .  A
C3403      C3981   1.464       .  S
C3403      O4022   1.286       .  A
O3404      H3735   0.988       .  S
O3404      H3427   0.989       .  S
O3405      H3419   0.989       .  S
O3405      H3426   0.989       .  S
O3406     Zr3691   2.435   1_554  S
O3406      C3410   1.287       .  A
O3407      C3410   1.291       .  A
O3408      H3418   0.991       .  S
O3409      H3422   0.988       .  S
H3415      O3696   0.990   1_554  S
H3421      O3713   0.990       .  S
H3423      O3716   0.988   1_554  S
H3432      O3680   0.985       .  S
C3433      N3434   1.379       .  A
C3433      N3438   1.359       .  A
C3433      C3541   1.482       .  S
N3434      C3435   1.377       .  A
C3435      N3436   1.355       .  A
C3435      C3707   1.499       .  S
N3436      C3437   1.356       .  A
C3437      N3438   1.350       .  A
C3437      C3475   1.465       .  S
Zr3439     O3441   2.455       .  S
Zr3439     O3442   2.447       .  S
Zr3439     O3445   2.470       .  S
Zr3439     O3447   2.364       .  S
Zr3439     O3448   2.357       .  S
Zr3439     O3449   2.393       .  S
Zr3439     O3450   2.404       .  S
O3440     Zr4063   2.392       .  S
O3440      H3496   0.984       .  S
O3440      H3504   0.984       .  S
O3441      C3461   1.285       .  A
O3442      C3463   1.288       .  A
O3443     Zr3453   2.458       .  S
O3443      C3462   1.286       .  A
O3444     Zr3452   2.467       .  S
O3444      C3463   1.291       .  A
O3445      C3462   1.294       .  A
O3446     Zr3454   2.393       .  S
O3446      C3461   1.271       .  A
O3447     Zr3452   2.408       .  S
O3447     Zr3454   2.362       .  S
O3448     Zr3453   2.397       .  S
O3448     Zr3454   2.363       .  S
O3448      H3483   0.965       .  S
O3449     Zr3452   2.405       .  S
O3449     Zr3469   2.393       .  S
O3449      H3486   0.964       .  S
O3450     Zr3453   2.403       .  S
O3450     Zr3469   2.398       .  S
Zr3451     O3470   2.447       .  S
Zr3451     O3478   2.439       .  S
Zr3451     O3466   2.473       .  S
Zr3451     O3457   2.388       .  S
Zr3451     O3458   2.399       .  S
Zr3451     O3459   2.367       .  S
Zr3451     O3460   2.391       .  S
Zr3451     O3476   2.424       .  S
Zr3452     O3465   2.473       .  S
Zr3452     O3458   2.402       .  S
Zr3452     O3459   2.389       .  S
Zr3452     O3471   2.434       .  S
Zr3452     O3464   2.419       .  S
Zr3453     O3479   2.472       .  S
Zr3453     O3457   2.371       .  S
Zr3453     O3460   2.398       .  S
Zr3453     O3455   2.429       .  S
Zr3453     O3477   2.427       .  S
Zr3454     O3457   2.381       .  S
Zr3454     O3458   2.395       .  S
Zr3454     O3480   2.444       .  S
Zr3454     O3481   2.425       .  S
Zr3454     O3456   2.448       .  S
O3455      H3492   0.988       .  S
O3456      H3487   0.990       .  S
O3456      H3501   0.988       .  S
O3458      H3484   0.962       .  S
O3459     Zr3469   2.377       .  S
O3460     Zr3469   2.363       .  S
O3460      H3485   0.966       .  S
C3461      C3509   1.467       .  S
C3462      C3675   1.498       .  S
C3463      C3583   1.482       .  S
O3464      H3500   0.990       .  S
O3465      C3467   1.290       .  A
O3466      C3467   1.294       .  A
C3467      C3671   1.497       .  S
O3468     Zr4093   2.444       .  S
O3468      H3497   0.991       .  S
Zr3469     O3474   2.396       .  S
Zr3469     O3472   2.423       .  S
Zr3469     O3473   2.444       .  S
O3470      C3475   1.286       .  A
O3471      H3488   0.989       .  S
O3471      H3503   0.984       .  S
O3472      H3489   0.990       .  S
O3473      H3493   0.990       .  S
O3473      H3502   0.987       .  S
O3474      C3475   1.273       .  A
O3476      H3495   0.988       .  S
O3476      H4123   0.989       .  S
O3477      H3491   0.989       .  S
O3477      H3498   0.989       .  S
O3478      C3482   1.288       .  A
O3479      C3482   1.292       .  A
O3480      H3490   0.991       .  S
O3481      H3494   0.988       .  S
C3482      C3511   1.483       .  S
C3505      N3506   1.377       .  A
C3505      N3510   1.359       .  A
C3505      C3560   1.480       .  S
N3506      C3507   1.375       .  A
C3507      N3508   1.355       .  A
C3507      C3702   1.495       .  S
N3508      C3509   1.356       .  A
C3509      N3510   1.351       .  A
C3511      N3512   1.378       .  A
C3511      N3516   1.359       .  A
N3512      C4137   1.376       .  A
C3513      N3514   1.355       .  A
C3513      C3618   1.498       .  S
C3515      N4138   1.356       .  A
C3515      N3516   1.351       .  A
C3515      C3539   1.467       .  S
Zr3517     O3519   2.454       .  S
Zr3517     O3520   2.446       .  S
Zr3517     O3523   2.467       .  S
Zr3517     O3525   2.365       .  S
Zr3517     O3526   2.357       .  S
Zr3517     O3518   2.394       .  S
O3518      H3574   0.984       .  S
O3518      H3582   0.985       .  S
O3519      C3539   1.284       .  A
O3520      C3541   1.288       .  A
O3521      C3540   1.286       .  A
O3522      C3541   1.291       .  A
O3523      C3540   1.293       .  A
O3524     Zr3532   2.393       .  S
O3525     Zr4156   2.363       .  S
O3526     Zr4156   2.363       .  S
O3526      H3561   0.965       .  S
O3527     Zr3530   2.406       .  S
O3527     Zr3547   2.392       .  S
O3527      H3564   0.964       .  S
O3528     Zr3531   2.404       .  S
O3528     Zr3547   2.397       .  S
Zr3529     O3548   2.447       .  S
Zr3529     O3556   2.436       .  S
Zr3529     O3544   2.473       .  S
Zr3529     O3535   2.388       .  S
Zr3529     O3536   2.398       .  S
Zr3529     O3554   2.424       .  S
Zr3530     O4167   2.476       .  S
Zr3530     O4160   2.403       .  S
Zr3530     O3537   2.388       .  S
Zr3530     O3549   2.434       .  S
Zr3531     O4181   2.469       .  S
Zr3531     O4159   2.371       .  S
Zr3531     O3538   2.397       .  S
Zr3531     O3533   2.427       .  S
Zr3532     O3558   2.445       .  S
Zr3532     O3559   2.427       .  S
Zr3532     O3534   2.448       .  S
O3533      H3570   0.988       .  S
O3534      H3565   0.990       .  S
O3534      H3579   0.988       .  S
O3536      H3562   0.962       .  S
O3537     Zr4153   2.367       .  S
O3537     Zr3547   2.378       .  S
O3538     Zr4153   2.390       .  S
O3538     Zr3547   2.364       .  S
O3538      H3563   0.966       .  S
C3539      O4148   1.271       .  A
C3540      C3593   1.495       .  S
O3542      H3578   0.990       .  S
O3543      C3545   1.290       .  A
O3544      C3545   1.294       .  A
C3545      C3665   1.498       .  S
O3546     Zr3547   2.445       .  S
O3546      H3575   0.991       .  S
Zr3547     O3552   2.395       .  S
Zr3547     O3550   2.423       .  S
Zr3547     O3551   2.445       .  S
O3549      H3566   0.989       .  S
O3549      H3581   0.984       .  S
O3550      H3567   0.990       .  S
O3551      H3571   0.990       .  S
O3551      H3580   0.987       .  S
O3552      C3553   1.273       .  A
C3553      C4209   1.464       .  S
C3553      O4172   1.286       .  A
O3554      H3573   0.988       .  S
O3554      H3577   0.989       .  S
O3555      H3569   0.989       .  S
O3555      H3576   0.989       .  S
O3556      C3560   1.287       .  A
O3557      C3560   1.291       .  A
O3558      H3568   0.991       .  S
O3559      H3572   0.988       .  S
C3583      N3584   1.359       .  A
N3584      C3585   1.350       .  A
N3586      C4209   1.355       .  A
N3586      C3587   1.355       .  A
C3587      N3588   1.376       .  A
C3587      C3623   1.497       .  S
N3588      C4207   1.379       .  A
C3589      N3590   1.359       .  A
C3589      N3594   1.377       .  A
C3589      C3722   1.480       .  S
N3590      C3591   1.351       .  A
C3591      N3592   1.356       .  A
C3591      C3617   1.467       .  S
N3592      C3593   1.356       .  A
C3593      N3594   1.375       .  A
Zr3595     O3597   2.455       .  S
Zr3595     O3601   2.470       .  S
Zr3595     O3604   2.357       .  S
Zr3595     O3606   2.404       .  S
O3596     Zr4219   2.392       .  S
O3596      H3652   0.984       .  S
O3597      C3617   1.285       .  A
O3598      C3619   1.288       .  A
O3599     Zr3609   2.458       .  S
O3599      C3618   1.286       .  A
O3600     Zr3608   2.467       .  S
O3600      C3619   1.291       .  A
O3601      C3618   1.294       .  A
O3602     Zr3610   2.394       .  S
O3602      C3617   1.271       .  A
O3603     Zr3608   2.408       .  S
O3604     Zr3609   2.397       .  S
O3604     Zr3610   2.363       .  S
O3604      H3639   0.965       .  S
O3605     Zr3608   2.405       .  S
O3605     Zr3625   2.393       .  S
O3605      H3642   0.964       .  S
O3606     Zr3609   2.403       .  S
Zr3607     O3626   2.448       .  S
Zr3607     O3622   2.474       .  S
Zr3607     O3614   2.399       .  S
Zr3607     O3615   2.366       .  S
Zr3607     O3632   2.423       .  S
Zr3608     O3621   2.473       .  S
Zr3608     O3614   2.401       .  S
Zr3608     O3615   2.390       .  S
Zr3608     O3627   2.434       .  S
Zr3608     O3620   2.419       .  S
Zr3609     O3635   2.470       .  S
Zr3609     O3613   2.372       .  S
Zr3609     O3616   2.398       .  S
Zr3609     O3611   2.429       .  S
Zr3609     O3633   2.427       .  S
Zr3610     O3613   2.381       .  S
Zr3610     O3636   2.444       .  S
Zr3610     O3637   2.426       .  S
O3611      H3648   0.988       .  S
O3612      H3657   0.988       .  S
O3614      H3640   0.962       .  S
O3615     Zr3625   2.377       .  S
O3616      H3641   0.966       .  S
C3619      C3667   1.482       .  S
O3620      H3656   0.990       .  S
O3621      C3623   1.290       .  A
O3622      C3623   1.295       .  A
O3624     Zr4249   2.444       .  S
O3624      H3653   0.991       .  S
Zr3625     O3630   2.396       .  S
Zr3625     O3628   2.423       .  S
O3626      C3631   1.286       .  A
O3627      H3644   0.989       .  S
O3627      H3659   0.984       .  S
O3628      H3645   0.990       .  S
O3629      H3658   0.987       .  S
O3630      C3631   1.273       .  A
C3631      C3663   1.465       .  S
O3632      H4279   0.989       .  S
O3633      H3647   0.989       .  S
O3633      H3654   0.989       .  S
O3634      C3638   1.288       .  A
O3635      C3638   1.291       .  A
O3636      H3646   0.990       .  S
O3637      H3650   0.988       .  S
C3638      C3673   1.482       .  S
C3661      N3662   1.359       .  A
C3661      N3666   1.379       .  A
C3661      C3703   1.482       .  S
N3662      C3663   1.350       .  A
C3663      N3664   1.356       .  A
N3664      C3665   1.355       .  A
C3665      N3666   1.377       .  A
C3667      N3668   1.359       .  A
N3668      C3669   1.350       .  A
N3670      C4293   1.355       .  A
N3670      C3671   1.355       .  A
C3671      N3672   1.376       .  A
N3672      C4291   1.379       .  A
C3673      N3674   1.378       .  A
C3673      N3678   1.359       .  A
N3674      C4299   1.376       .  A
C3675      N3676   1.355       .  A
C3677      N4300   1.357       .  A
C3677      N3678   1.351       .  A
C3677      C3701   1.467       .  S
Zr3679     O3681   2.454       .  S
Zr3679     O3685   2.467       .  S
Zr3679     O3688   2.357       .  S
Zr3679     O3690   2.403       .  S
Zr3679     O3680   2.394       .  S
O3680      H3736   0.985       .  S
O3681      C3701   1.284       .  A
O3682      C3703   1.288       .  A
O3683     Zr3693   2.454       .  S
O3683      C3702   1.285       .  A
O3684     Zr3692   2.467       .  S
O3684      C3703   1.291       .  A
O3685      C3702   1.293       .  A
O3686     Zr3694   2.393       .  S
O3687     Zr3692   2.409       .  S
O3687     Zr4006   2.363   1_556  S
O3688     Zr3693   2.396       .  S
O3688     Zr4318   2.363       .  S
O3688      H3723   0.965       .  S
O3689     Zr3692   2.406       .  S
O3689      H3726   0.964       .  S
O3690     Zr3693   2.404       .  S
Zr3691     O3710   2.447       .  S
Zr3691     O3706   2.473       .  S
Zr3691     O3716   2.424       .  S
Zr3692     O4322   2.403       .  S
Zr3692     O4328   2.418       .  S
Zr3693     O4321   2.371       .  S
Zr3693     O4341   2.428       .  S
Zr3694     O3697   2.382       .  S
Zr3694     O3720   2.445       .  S
Zr3694     O3721   2.427       .  S
O3695      H3732   0.988       .  S
O3696      H3741   0.988       .  S
O3698      H3724   0.962       .  S
O3699     Zr4315   2.366       .  S
O3699     Zr3709   2.378       .  S
O3700     Zr4003   2.390       .  S
O3700      H3725   0.966       .  S
C3701      O4310   1.271       .  A
O3704      H3740   0.990       .  S
O3705      C3707   1.290       .  A
O3706      C3707   1.294       .  A
O3708     Zr3709   2.445       .  S
O3708      H3737   0.991       .  S
Zr3709     O3714   2.395       .  S
Zr3709     O3712   2.423       .  S
O3711      H3728   0.989       .  S
O3711      H3743   0.985       .  S
O3712      H3729   0.990       .  S
O3713      H3742   0.987       .  S
O3714      C3715   1.273       .  A
C3715      C4293   1.464       .  S
C3715      O4334   1.286       .  A
O3716      H3739   0.989       .  S
O3717      H3731   0.989       .  S
O3717      H3738   0.989       .  S
O3718      C3722   1.287       .  A
O3719      C3722   1.291       .  A
O3720      H3730   0.991       .  S
O3721      H3734   0.988       .  S
C3745      N3746   1.379       .  A
C3745      N3750   1.359       .  A
C3745      C3853   1.482       .  S
N3746      C3747   1.377       .  A
C3747      N3748   1.355       .  A
C3747      C4019   1.499       .  S
N3748      C3749   1.356       .  A
C3749      N3750   1.350       .  A
C3749      C3787   1.465       .  S
Zr3751     O3753   2.454       .  S
Zr3751     O3754   2.447       .  S
Zr3751     O3757   2.470       .  S
Zr3751     O3759   2.364       .  S
Zr3751     O3760   2.358       .  S
Zr3751     O3761   2.393       .  S
Zr3751     O3762   2.404       .  S
O3752     Zr4375   2.392       .  S
O3752      H3808   0.984       .  S
O3752      H3816   0.984       .  S
O3753      C3773   1.285       .  A
O3754      C3775   1.288       .  A
O3755     Zr3765   2.458       .  S
O3755      C3774   1.286       .  A
O3756     Zr3764   2.467       .  S
O3756      C3775   1.291       .  A
O3757      C3774   1.294       .  A
O3758     Zr3766   2.393       .  S
O3758      C3773   1.271       .  A
O3759     Zr3764   2.408       .  S
O3759     Zr3766   2.362       .  S
O3760     Zr3765   2.397       .  S
O3760     Zr3766   2.363       .  S
O3760      H3795   0.965       .  S
O3761     Zr3764   2.405       .  S
O3761     Zr3781   2.393       .  S
O3761      H3798   0.964       .  S
O3762     Zr3765   2.403       .  S
O3762     Zr3781   2.398       .  S
Zr3763     O3782   2.447       .  S
Zr3763     O3790   2.439       .  S
Zr3763     O3778   2.474       .  S
Zr3763     O3769   2.388       .  S
Zr3763     O3770   2.399       .  S
Zr3763     O3771   2.366       .  S
Zr3763     O3772   2.391       .  S
Zr3763     O3788   2.424       .  S
Zr3764     O3777   2.473       .  S
Zr3764     O3770   2.402       .  S
Zr3764     O3771   2.390       .  S
Zr3764     O3783   2.434       .  S
Zr3764     O3776   2.420       .  S
Zr3765     O3791   2.472       .  S
Zr3765     O3769   2.372       .  S
Zr3765     O3772   2.398       .  S
Zr3765     O3767   2.429       .  S
Zr3765     O3789   2.427       .  S
Zr3766     O3769   2.380       .  S
Zr3766     O3770   2.395       .  S
Zr3766     O3792   2.444       .  S
Zr3766     O3793   2.425       .  S
Zr3766     O3768   2.448       .  S
O3767      H3804   0.988       .  S
O3768      H3799   0.990       .  S
O3768      H3813   0.988       .  S
O3770      H3796   0.962       .  S
O3771     Zr3781   2.377       .  S
O3772     Zr3781   2.363       .  S
O3772      H3797   0.966       .  S
C3773      C3821   1.467       .  S
C3774      C3987   1.498       .  S
C3775      C3895   1.482       .  S
O3776      H3812   0.990       .  S
O3777      C3779   1.290       .  A
O3778      C3779   1.294       .  A
C3779      C3983   1.497       .  S
O3780     Zr4405   2.444       .  S
O3780      H3809   0.991       .  S
Zr3781     O3786   2.396       .  S
Zr3781     O3784   2.423       .  S
Zr3781     O3785   2.444       .  S
O3782      C3787   1.286       .  A
O3783      H3800   0.989       .  S
O3783      H3815   0.984       .  S
O3784      H3801   0.990       .  S
O3785      H3805   0.990       .  S
O3785      H3814   0.987       .  S
O3786      C3787   1.273       .  A
O3788      H3807   0.988       .  S
O3788      H4435   0.989       .  S
O3789      H3803   0.989       .  S
O3789      H3810   0.989       .  S
O3790      C3794   1.288       .  A
O3791      C3794   1.292       .  A
O3792      H3802   0.990       .  S
O3793      H3806   0.988       .  S
C3794      C3823   1.483       .  S
C3817      N3818   1.377       .  A
C3817      N3822   1.359       .  A
C3817      C3872   1.480       .  S
N3818      C3819   1.375       .  A
C3819      N3820   1.355       .  A
C3819      C4014   1.495       .  S
N3820      C3821   1.356       .  A
C3821      N3822   1.351       .  A
C3823      N3824   1.378       .  A
C3823      N3828   1.359       .  A
N3824      C4449   1.376       .  A
C3825      N3826   1.355       .  A
C3825      C3930   1.498       .  S
C3827      N4450   1.356       .  A
C3827      N3828   1.351       .  A
C3827      C3851   1.467       .  S
Zr3829     O3831   2.454       .  S
Zr3829     O3832   2.446       .  S
Zr3829     O3835   2.468       .  S
Zr3829     O3837   2.365       .  S
Zr3829     O3838   2.357       .  S
Zr3829     O3830   2.393       .  S
O3830      H3886   0.984       .  S
O3830      H3894   0.985       .  S
O3831      C3851   1.284       .  A
O3832      C3853   1.288       .  A
O3833      C3852   1.286       .  A
O3834      C3853   1.291       .  A
O3835      C3852   1.293       .  A
O3836     Zr3844   2.393       .  S
O3837     Zr4468   2.363       .  S
O3838     Zr4468   2.363       .  S
O3838      H3873   0.965       .  S
O3839     Zr3842   2.406       .  S
O3839     Zr3859   2.392       .  S
O3839      H3876   0.964       .  S
O3840     Zr3843   2.404       .  S
O3840     Zr3859   2.397       .  S
Zr3841     O3860   2.446       .  S
Zr3841     O3868   2.436       .  S
Zr3841     O3856   2.473       .  S
Zr3841     O3847   2.388       .  S
Zr3841     O3848   2.398       .  S
Zr3841     O3866   2.424       .  S
Zr3842     O4479   2.476       .  S
Zr3842     O4472   2.403       .  S
Zr3842     O3849   2.389       .  S
Zr3842     O3861   2.433       .  S
Zr3843     O4493   2.469       .  S
Zr3843     O4471   2.371       .  S
Zr3843     O3850   2.397       .  S
Zr3843     O3845   2.428       .  S
Zr3844     O3870   2.445       .  S
Zr3844     O3871   2.427       .  S
Zr3844     O3846   2.448       .  S
O3845      H3882   0.988       .  S
O3846      H3877   0.990       .  S
O3846      H3891   0.988       .  S
O3848      H3874   0.962       .  S
O3849     Zr4465   2.367       .  S
O3849     Zr3859   2.378       .  S
O3850     Zr4465   2.391       .  S
O3850     Zr3859   2.363       .  S
O3850      H3875   0.966       .  S
C3851      O4460   1.271       .  A
C3852      C3905   1.495       .  S
O3854      H3890   0.990       .  S
O3855      C3857   1.290       .  A
O3856      C3857   1.294       .  A
C3857      C3977   1.499       .  S
O3858     Zr3859   2.445       .  S
O3858      H3887   0.991       .  S
Zr3859     O3864   2.395       .  S
Zr3859     O3862   2.423       .  S
Zr3859     O3863   2.444       .  S
O3861      H3878   0.989       .  S
O3861      H3893   0.985       .  S
O3862      H3879   0.990       .  S
O3863      H3883   0.990       .  S
O3863      H3892   0.987       .  S
O3864      C3865   1.273       .  A
C3865      C4521   1.464       .  S
C3865      O4484   1.286       .  A
O3866      H3885   0.988       .  S
O3866      H3889   0.989       .  S
O3867      H3881   0.989       .  S
O3867      H3888   0.989       .  S
O3868      C3872   1.287       .  A
O3869      C3872   1.291       .  A
O3870      H3880   0.991       .  S
O3871      H3884   0.988       .  S
C3895      N3896   1.359       .  A
N3896      C3897   1.350       .  A
N3898      C4521   1.355       .  A
N3898      C3899   1.355       .  A
C3899      N3900   1.377       .  A
C3899      C3935   1.497       .  S
N3900      C4519   1.379       .  A
C3901      N3902   1.359       .  A
C3901      N3906   1.377       .  A
C3901      C4034   1.480       .  S
N3902      C3903   1.351       .  A
C3903      N3904   1.356       .  A
C3903      C3929   1.468       .  S
N3904      C3905   1.355       .  A
C3905      N3906   1.375       .  A
Zr3907     O3909   2.454       .  S
Zr3907     O4222   2.446   1_554  S
Zr3907     O3913   2.470       .  S
Zr3907     O4227   2.365   1_554  S
Zr3907     O3916   2.357       .  S
Zr3907     O4229   2.393   1_554  S
Zr3907     O3918   2.404       .  S
O3908     Zr4531   2.392       .  S
O3908      H3964   0.984       .  S
O3908      H4284   0.984       .  S
O3909      C3929   1.285       .  A
O3910     Zr4219   2.447       .  S
O3910      C3931   1.288       .  A
O3911     Zr3921   2.459       .  S
O3911      C3930   1.286       .  A
O3912     Zr3920   2.466       .  S
O3912      C3931   1.291       .  A
O3913      C3930   1.294       .  A
O3914     Zr3922   2.395       .  S
O3914      C3929   1.272       .  A
O3915     Zr4219   2.365       .  S
O3915     Zr3920   2.409       .  S
O3915     Zr4234   2.362       .  S
O3916     Zr3921   2.397       .  S
O3916     Zr3922   2.363       .  S
O3916      H3951   0.965       .  S
O3917     Zr4219   2.393       .  S
O3917     Zr3920   2.405       .  S
O3917     Zr3937   2.393       .  S
O3917      H3954   0.964       .  S
O3918     Zr3921   2.403       .  S
O3918     Zr4249   2.398   1_554  S
Zr3919     O3938   2.448       .  S
Zr3919     O4258   2.439       .  S
Zr3919     O3934   2.474       .  S
Zr3919     O4237   2.388       .  S
Zr3919     O3926   2.399       .  S
Zr3919     O3927   2.366       .  S
Zr3919     O4240   2.390       .  S
Zr3919     O3944   2.424       .  S
Zr3920     O3933   2.473       .  S
Zr3920     O3926   2.402       .  S
Zr3920     O3927   2.389       .  S
Zr3920     O3939   2.434       .  S
Zr3920     O3932   2.418       .  S
Zr3921     O3947   2.471       .  S
Zr3921     O3925   2.372       .  S
Zr3921     O3928   2.398       .  S
Zr3921     O3923   2.429       .  S
Zr3921     O3945   2.427       .  S
Zr3922     O4227   2.362   1_554  S
Zr3922     O3925   2.381       .  S
Zr3922     O4238   2.396   1_554  S
Zr3922     O3948   2.444       .  S
Zr3922     O3949   2.425       .  S
Zr3922     O4236   2.448   1_554  S
O3923      H3960   0.988       .  S
O3924     Zr4234   2.448       .  S
O3924      H4267   0.990       .  S
O3924      H3969   0.988       .  S
O3925     Zr4231   2.388   1_554  S
O3926     Zr4234   2.395       .  S
O3926      H3952   0.962       .  S
O3927     Zr3937   2.377       .  S
O3928     Zr4231   2.390   1_554  S
O3928     Zr4249   2.363   1_554  S
O3928      H3953   0.966       .  S
C3931      C3979   1.482       .  S
O3932      H3968   0.990       .  S
O3933      C3935   1.290       .  A
O3934      C3935   1.295       .  A
O3936     Zr4561   2.444       .  S
O3936      H3965   0.991       .  S
Zr3937     O3942   2.397       .  S
Zr3937     O4230   2.398       .  S
Zr3937     O4240   2.362       .  S
Zr3937     O3940   2.423       .  S
Zr3937     O4253   2.444       .  S
O3938      C3943   1.286       .  A
O3939      H3956   0.989       .  S
O3939      H3971   0.984       .  S
O3940      H3957   0.990       .  S
O3941     Zr4249   2.444   1_554  S
O3941      H4273   0.990       .  S
O3941      H3970   0.987       .  S
O3942      C3943   1.273       .  A
C3943      C3975   1.465       .  S
O3944      H4275   0.988       .  S
O3944      H4591   0.989       .  S
O3945      H3959   0.989       .  S
O3945      H3966   0.989       .  S
O3946     Zr4231   2.440   1_554  S
O3946      C3950   1.288       .  A
O3947      C3950   1.291       .  A
O3948      H3958   0.990       .  S
O3949      H3962   0.988       .  S
C3950      C3985   1.483       .  S
H3955      O4236   0.990   1_554  S
H3961      O4253   0.990       .  S
H3963      O4256   0.988   1_554  S
H3972      O4220   0.984       .  S
C3973      N3974   1.359       .  A
C3973      N3978   1.379       .  A
C3973      C4015   1.482       .  S
N3974      C3975   1.350       .  A
C3975      N3976   1.356       .  A
N3976      C3977   1.355       .  A
C3977      N3978   1.377       .  A
C3979      N3980   1.359       .  A
N3980      C3981   1.350       .  A
N3982      C4605   1.355       .  A
N3982      C3983   1.355       .  A
C3983      N3984   1.376       .  A
N3984      C4603   1.379       .  A
C3985      N3986   1.378       .  A
C3985      N3990   1.359       .  A
N3986      C4611   1.376       .  A
C3987      N3988   1.355       .  A
C3989      N4612   1.356       .  A
C3989      N3990   1.351       .  A
C3989      C4013   1.467       .  S
Zr3991     O3993   2.454       .  S
Zr3991     O4306   2.446   1_554  S
Zr3991     O3997   2.468       .  S
Zr3991     O4311   2.366   1_554  S
Zr3991     O4000   2.357       .  S
Zr3991     O4313   2.393   1_554  S
Zr3991     O4002   2.403       .  S
Zr3991     O3992   2.393       .  S
O3992      H4048   0.984       .  S
O3992      H4368   0.985       .  S
O3993      C4013   1.284       .  A
O3994     Zr4303   2.445       .  S
O3994      C4015   1.288       .  A
O3995     Zr4005   2.454       .  S
O3995      C4014   1.285       .  A
O3996     Zr4004   2.468       .  S
O3996      C4015   1.291       .  A
O3997      C4014   1.293       .  A
O3998     Zr4006   2.393       .  S
O3999     Zr4303   2.366       .  S
O3999     Zr4004   2.409       .  S
O3999     Zr4942   2.363       .  S
O4000     Zr4005   2.396       .  S
O4000     Zr4630   2.363       .  S
O4000      H4035   0.965       .  S
O4001     Zr4303   2.393       .  S
O4001     Zr4004   2.406       .  S
O4001      H4038   0.964       .  S
O4002     Zr4005   2.404       .  S
Zr4003     O4022   2.447       .  S
Zr4003     O4342   2.436       .  S
Zr4003     O4018   2.473       .  S
Zr4003     O4028   2.424       .  S
Zr4004     O4634   2.402       .  S
Zr4004     O4640   2.419       .  S
Zr4005     O4633   2.371       .  S
Zr4005     O4653   2.428       .  S
Zr4006     O4009   2.382       .  S
Zr4006     O4322   2.397   1_554  S
Zr4006     O4032   2.445       .  S
Zr4006     O4033   2.427       .  S
Zr4006     O4320   2.449   1_554  S
O4007      H4044   0.988       .  S
O4008     Zr4318   2.448       .  S
O4008      H4351   0.990       .  S
O4008      H4053   0.988       .  S
O4010     Zr4318   2.397       .  S
O4010      H4036   0.962       .  S
O4011     Zr4627   2.366       .  S
O4011     Zr4021   2.378       .  S
O4012     Zr4939   2.390   1_554  S
O4012     Zr4333   2.364   1_554  S
O4012      H4037   0.966       .  S
C4013      O4622   1.271       .  A
O4016      H4052   0.990       .  S
O4017      C4019   1.290       .  A
O4018      C4019   1.294       .  A
O4020     Zr4021   2.445       .  S
O4020      H4049   0.991       .  S
Zr4021     O4026   2.396       .  S
Zr4021     O4324   2.364       .  S
Zr4021     O4024   2.423       .  S
Zr4021     O4337   2.445       .  S
O4023      H4040   0.989       .  S
O4023      H4055   0.985       .  S
O4024      H4041   0.990       .  S
O4025     Zr4333   2.445   1_554  S
O4025      H4357   0.990       .  S
O4025      H4054   0.987       .  S
O4026      C4027   1.274       .  A
C4027      C4605   1.464       .  S
C4027      O4646   1.286       .  A
O4028      H4359   0.988       .  S
O4028      H4051   0.989       .  S
O4029      H4043   0.989       .  S
O4029      H4050   0.989       .  S
O4030     Zr4315   2.436   1_554  S
O4030      C4034   1.287       .  A
O4031      C4034   1.291       .  A
O4032      H4042   0.991       .  S
O4033      H4046   0.988       .  S
H4039      O4320   0.990   1_554  S
H4045      O4337   0.990       .  S
H4047      O4340   0.988   1_554  S
H4056      O4304   0.985       .  S
C4057      N4058   1.379       .  A
C4057      N4062   1.359       .  A
C4057      C4165   1.482       .  S
N4058      C4059   1.377       .  A
C4059      N4060   1.355       .  A
C4059      C4331   1.499       .  S
N4060      C4061   1.356       .  A
C4061      N4062   1.350       .  A
C4061      C4099   1.464       .  S
Zr4063     O4065   2.454       .  S
Zr4063     O4066   2.447       .  S
Zr4063     O4069   2.470       .  S
Zr4063     O4071   2.365       .  S
Zr4063     O4072   2.358       .  S
Zr4063     O4073   2.393       .  S
Zr4063     O4074   2.405       .  S
O4064     Zr4687   2.392       .  S
O4064      H4120   0.984       .  S
O4064      H4128   0.984       .  S
O4065      C4085   1.285       .  A
O4066      C4087   1.288       .  A
O4067     Zr4077   2.458       .  S
O4067      C4086   1.286       .  A
O4068     Zr4076   2.466       .  S
O4068      C4087   1.291       .  A
O4069      C4086   1.294       .  A
O4070     Zr4078   2.393       .  S
O4070      C4085   1.271       .  A
O4071     Zr4076   2.408       .  S
O4071     Zr4078   2.362       .  S
O4072     Zr4077   2.398       .  S
O4072     Zr4078   2.363       .  S
O4072      H4107   0.965       .  S
O4073     Zr4076   2.406       .  S
O4073     Zr4093   2.393       .  S
O4073      H4110   0.964       .  S
O4074     Zr4077   2.403       .  S
O4074     Zr4093   2.398       .  S
Zr4075     O4094   2.447       .  S
Zr4075     O4102   2.439       .  S
Zr4075     O4090   2.474       .  S
Zr4075     O4081   2.387       .  S
Zr4075     O4082   2.399       .  S
Zr4075     O4083   2.367       .  S
Zr4075     O4084   2.391       .  S
Zr4075     O4100   2.424       .  S
Zr4076     O4089   2.473       .  S
Zr4076     O4082   2.402       .  S
Zr4076     O4083   2.389       .  S
Zr4076     O4095   2.434       .  S
Zr4076     O4088   2.418       .  S
Zr4077     O4103   2.472       .  S
Zr4077     O4081   2.371       .  S
Zr4077     O4084   2.398       .  S
Zr4077     O4079   2.429       .  S
Zr4077     O4101   2.427       .  S
Zr4078     O4081   2.380       .  S
Zr4078     O4082   2.395       .  S
Zr4078     O4104   2.444       .  S
Zr4078     O4105   2.425       .  S
Zr4078     O4080   2.448       .  S
O4079      H4116   0.988       .  S
O4080      H4111   0.990       .  S
O4080      H4125   0.988       .  S
O4082      H4108   0.962       .  S
O4083     Zr4093   2.377       .  S
O4084     Zr4093   2.363       .  S
O4084      H4109   0.966       .  S
C4085      C4133   1.467       .  S
C4086      C4299   1.498       .  S
C4087      C4207   1.482       .  S
O4088      H4124   0.990       .  S
O4089      C4091   1.290       .  A
O4090      C4091   1.294       .  A
C4091      C4295   1.497       .  S
O4092     Zr4717   2.444       .  S
O4092      H4121   0.991       .  S
Zr4093     O4098   2.396       .  S
Zr4093     O4096   2.423       .  S
Zr4093     O4097   2.444       .  S
O4094      C4099   1.286       .  A
O4095      H4112   0.989       .  S
O4095      H4127   0.984       .  S
O4096      H4113   0.990       .  S
O4097      H4117   0.990       .  S
O4097      H4126   0.987       .  S
O4098      C4099   1.273       .  A
O4100      H4119   0.988       .  S
O4100      H4747   0.989       .  S
O4101      H4115   0.989       .  S
O4101      H4122   0.989       .  S
O4102      C4106   1.288       .  A
O4103      C4106   1.292       .  A
O4104      H4114   0.990       .  S
O4105      H4118   0.988       .  S
C4106      C4135   1.483       .  S
C4129      N4130   1.377       .  A
C4129      N4134   1.359       .  A
C4129      C4184   1.480       .  S
N4130      C4131   1.375       .  A
C4131      N4132   1.355       .  A
C4131      C4326   1.495       .  S
N4132      C4133   1.356       .  A
C4133      N4134   1.351       .  A
C4135      N4136   1.378       .  A
C4135      N4140   1.359       .  A
N4136      C4761   1.376       .  A
C4137      N4138   1.355       .  A
C4137      C4242   1.498       .  S
C4139      N4762   1.357       .  A
C4139      N4140   1.351       .  A
C4139      C4163   1.467       .  S
Zr4141     O4143   2.454       .  S
Zr4141     O4144   2.446       .  S
Zr4141     O4147   2.467       .  S
Zr4141     O4149   2.365       .  S
Zr4141     O4150   2.357       .  S
Zr4141     O4142   2.394       .  S
O4142      H4198   0.984       .  S
O4142      H4206   0.985       .  S
O4143      C4163   1.284       .  A
O4144      C4165   1.288       .  A
O4145      C4164   1.286       .  A
O4146      C4165   1.291       .  A
O4147      C4164   1.293       .  A
O4148     Zr4156   2.392       .  S
O4149     Zr4780   2.363       .  S
O4150     Zr4780   2.363       .  S
O4150      H4185   0.965       .  S
O4151     Zr4154   2.406       .  S
O4151     Zr4171   2.392       .  S
O4151      H4188   0.964       .  S
O4152     Zr4155   2.404       .  S
O4152     Zr4171   2.397       .  S
Zr4153     O4172   2.447       .  S
Zr4153     O4180   2.436       .  S
Zr4153     O4168   2.473       .  S
Zr4153     O4159   2.388       .  S
Zr4153     O4160   2.398       .  S
Zr4153     O4178   2.424       .  S
Zr4154     O4791   2.476       .  S
Zr4154     O4784   2.403       .  S
Zr4154     O4161   2.388       .  S
Zr4154     O4173   2.433       .  S
Zr4155     O4805   2.470       .  S
Zr4155     O4783   2.371       .  S
Zr4155     O4162   2.397       .  S
Zr4155     O4157   2.427       .  S
Zr4156     O4182   2.445       .  S
Zr4156     O4183   2.426       .  S
Zr4156     O4158   2.448       .  S
O4157      H4194   0.988       .  S
O4158      H4189   0.990       .  S
O4158      H4203   0.988       .  S
O4160      H4186   0.962       .  S
O4161     Zr4777   2.367       .  S
O4161     Zr4171   2.378       .  S
O4162     Zr4777   2.390       .  S
O4162     Zr4171   2.364       .  S
O4162      H4187   0.966       .  S
C4163      O4772   1.271       .  A
C4164      C4217   1.495       .  S
O4166      H4202   0.990       .  S
O4167      C4169   1.290       .  A
O4168      C4169   1.294       .  A
C4169      C4289   1.499       .  S
O4170     Zr4171   2.445       .  S
O4170      H4199   0.991       .  S
Zr4171     O4176   2.395       .  S
Zr4171     O4174   2.423       .  S
Zr4171     O4175   2.445       .  S
O4173      H4190   0.989       .  S
O4173      H4205   0.984       .  S
O4174      H4191   0.990       .  S
O4175      H4195   0.990       .  S
O4175      H4204   0.987       .  S
O4176      C4177   1.273       .  A
C4177      C4833   1.464       .  S
C4177      O4796   1.286       .  A
O4178      H4197   0.988       .  S
O4178      H4201   0.989       .  S
O4179      H4193   0.989       .  S
O4179      H4200   0.989       .  S
O4180      C4184   1.287       .  A
O4181      C4184   1.291       .  A
O4182      H4192   0.991       .  S
O4183      H4196   0.988       .  S
C4207      N4208   1.359       .  A
N4208      C4209   1.350       .  A
N4210      C4833   1.355       .  A
N4210      C4211   1.355       .  A
C4211      N4212   1.376       .  A
C4211      C4247   1.497       .  S
N4212      C4831   1.379       .  A
C4213      N4214   1.359       .  A
C4213      N4218   1.377       .  A
C4213      C4346   1.480       .  S
N4214      C4215   1.351       .  A
C4215      N4216   1.356       .  A
C4215      C4241   1.467       .  S
N4216      C4217   1.355       .  A
C4217      N4218   1.375       .  A
Zr4219     O4221   2.454       .  S
Zr4219     O4225   2.470       .  S
Zr4219     O4228   2.357       .  S
Zr4219     O4230   2.404       .  S
O4220     Zr4843   2.392       .  S
O4220      H4276   0.984       .  S
O4221      C4241   1.285       .  A
O4222      C4243   1.288       .  A
O4223     Zr4233   2.459       .  S
O4223      C4242   1.286       .  A
O4224     Zr4232   2.467       .  S
O4224      C4243   1.291       .  A
O4225      C4242   1.294       .  A
O4226     Zr4234   2.394       .  S
O4226      C4241   1.272       .  A
O4227     Zr4232   2.409       .  S
O4228     Zr4233   2.397       .  S
O4228     Zr4234   2.363       .  S
O4228      H4263   0.965       .  S
O4229     Zr4232   2.405       .  S
O4229     Zr4249   2.393       .  S
O4229      H4266   0.964       .  S
O4230     Zr4233   2.403       .  S
Zr4231     O4250   2.448       .  S
Zr4231     O4246   2.475       .  S
Zr4231     O4238   2.399       .  S
Zr4231     O4239   2.366       .  S
Zr4231     O4256   2.423       .  S
Zr4232     O4245   2.473       .  S
Zr4232     O4238   2.402       .  S
Zr4232     O4239   2.389       .  S
Zr4232     O4251   2.435       .  S
Zr4232     O4244   2.419       .  S
Zr4233     O4259   2.471       .  S
Zr4233     O4237   2.371       .  S
Zr4233     O4240   2.398       .  S
Zr4233     O4235   2.429       .  S
Zr4233     O4257   2.427       .  S
Zr4234     O4237   2.381       .  S
Zr4234     O4260   2.444       .  S
Zr4234     O4261   2.426       .  S
O4235      H4272   0.988       .  S
O4236      H4281   0.988       .  S
O4238      H4264   0.962       .  S
O4239     Zr4249   2.377       .  S
O4240      H4265   0.966       .  S
C4243      C4291   1.482       .  S
O4244      H4280   0.990       .  S
O4245      C4247   1.290       .  A
O4246      C4247   1.295       .  A
O4248     Zr4873   2.444       .  S
O4248      H4277   0.991       .  S
Zr4249     O4254   2.396       .  S
Zr4249     O4252   2.423       .  S
O4250      C4255   1.286       .  A
O4251      H4268   0.989       .  S
O4251      H4283   0.984       .  S
O4252      H4269   0.990       .  S
O4253      H4282   0.987       .  S
O4254      C4255   1.273       .  A
C4255      C4287   1.465       .  S
O4256      H4903   0.989       .  S
O4257      H4271   0.989       .  S
O4257      H4278   0.989       .  S
O4258      C4262   1.288       .  A
O4259      C4262   1.291       .  A
O4260      H4270   0.990       .  S
O4261      H4274   0.988       .  S
C4262      C4297   1.482       .  S
C4285      N4286   1.359       .  A
C4285      N4290   1.379       .  A
C4285      C4327   1.482       .  S
N4286      C4287   1.350       .  A
C4287      N4288   1.356       .  A
N4288      C4289   1.355       .  A
C4289      N4290   1.377       .  A
C4291      N4292   1.359       .  A
N4292      C4293   1.350       .  A
N4294      C4917   1.355       .  A
N4294      C4295   1.355       .  A
C4295      N4296   1.376       .  A
N4296      C4915   1.379       .  A
C4297      N4298   1.378       .  A
C4297      N4302   1.359       .  A
N4298      C4923   1.376       .  A
C4299      N4300   1.355       .  A
C4301      N4924   1.356       .  A
C4301      N4302   1.351       .  A
C4301      C4325   1.467       .  S
Zr4303     O4305   2.454       .  S
Zr4303     O4309   2.467       .  S
Zr4303     O4312   2.357       .  S
Zr4303     O4314   2.403       .  S
Zr4303     O4304   2.394       .  S
O4304      H4360   0.984       .  S
O4305      C4325   1.284       .  A
O4306      C4327   1.288       .  A
O4307     Zr4317   2.455       .  S
O4307      C4326   1.286       .  A
O4308     Zr4316   2.468       .  S
O4308      C4327   1.291       .  A
O4309      C4326   1.293       .  A
O4310     Zr4318   2.393       .  S
O4311     Zr4316   2.409       .  S
O4311     Zr4630   2.363   1_556  S
O4312     Zr4317   2.396       .  S
O4312     Zr4942   2.363       .  S
O4312      H4347   0.965       .  S
O4313     Zr4316   2.406       .  S
O4313      H4350   0.964       .  S
O4314     Zr4317   2.404       .  S
Zr4315     O4334   2.446       .  S
Zr4315     O4330   2.473       .  S
Zr4315     O4340   2.424       .  S
Zr4316     O4946   2.403       .  S
Zr4316     O4952   2.418       .  S
Zr4317     O4945   2.371       .  S
Zr4317     O4965   2.428       .  S
Zr4318     O4321   2.381       .  S
Zr4318     O4344   2.445       .  S
Zr4318     O4345   2.427       .  S
O4319      H4356   0.988       .  S
O4320      H4365   0.988       .  S
O4322      H4348   0.962       .  S
O4323     Zr4939   2.366       .  S
O4323     Zr4333   2.378       .  S
O4324     Zr4627   2.390       .  S
O4324      H4349   0.966       .  S
C4325      O4934   1.271       .  A
O4328      H4364   0.990       .  S
O4329      C4331   1.290       .  A
O4330      C4331   1.294       .  A
O4332     Zr4333   2.445       .  S
O4332      H4361   0.991       .  S
Zr4333     O4338   2.395       .  S
Zr4333     O4336   2.423       .  S
O4335      H4352   0.989       .  S
O4335      H4367   0.985       .  S
O4336      H4353   0.990       .  S
O4337      H4366   0.987       .  S
O4338      C4339   1.273       .  A
C4339      C4917   1.464       .  S
C4339      O4958   1.286       .  A
O4340      H4363   0.989       .  S
O4341      H4355   0.989       .  S
O4341      H4362   0.989       .  S
O4342      C4346   1.287       .  A
O4343      C4346   1.291       .  A
O4344      H4354   0.991       .  S
O4345      H4358   0.988       .  S
C4369      N4370   1.379       .  A
C4369      N4374   1.359       .  A
C4369      C4477   1.482       .  S
N4370      C4371   1.377       .  A
C4371      N4372   1.355       .  A
C4371      C4643   1.499       .  S
N4372      C4373   1.356       .  A
C4373      N4374   1.350       .  A
C4373      C4411   1.465       .  S
Zr4375     O4377   2.454       .  S
Zr4375     O4378   2.447       .  S
Zr4375     O4381   2.470       .  S
Zr4375     O4383   2.364       .  S
Zr4375     O4384   2.358       .  S
Zr4375     O4385   2.392       .  S
Zr4375     O4386   2.404       .  S
O4376      H4432   0.984       .  S
O4376      H4440   0.984       .  S
O4377      C4397   1.285       .  A
O4378      C4399   1.288       .  A
O4379     Zr4389   2.458       .  S
O4379      C4398   1.286       .  A
O4380     Zr4388   2.466       .  S
O4380      C4399   1.291       .  A
O4381      C4398   1.294       .  A
O4382     Zr4390   2.394       .  S
O4382      C4397   1.271       .  A
O4383     Zr4388   2.408       .  S
O4383     Zr4390   2.362       .  S
O4384     Zr4389   2.397       .  S
O4384     Zr4390   2.363       .  S
O4384      H4419   0.965       .  S
O4385     Zr4388   2.405       .  S
O4385     Zr4405   2.393       .  S
O4385      H4422   0.964       .  S
O4386     Zr4389   2.403       .  S
O4386     Zr4405   2.398       .  S
Zr4387     O4406   2.448       .  S
Zr4387     O4414   2.439       .  S
Zr4387     O4402   2.474       .  S
Zr4387     O4393   2.388       .  S
Zr4387     O4394   2.399       .  S
Zr4387     O4395   2.367       .  S
Zr4387     O4396   2.391       .  S
Zr4387     O4412   2.424       .  S
Zr4388     O4401   2.473       .  S
Zr4388     O4394   2.402       .  S
Zr4388     O4395   2.390       .  S
Zr4388     O4407   2.434       .  S
Zr4388     O4400   2.420       .  S
Zr4389     O4415   2.472       .  S
Zr4389     O4393   2.372       .  S
Zr4389     O4396   2.398       .  S
Zr4389     O4391   2.429       .  S
Zr4389     O4413   2.427       .  S
Zr4390     O4393   2.380       .  S
Zr4390     O4394   2.395       .  S
Zr4390     O4416   2.444       .  S
Zr4390     O4417   2.425       .  S
Zr4390     O4392   2.448       .  S
O4391      H4428   0.988       .  S
O4392      H4423   0.990       .  S
O4392      H4437   0.988       .  S
O4394      H4420   0.962       .  S
O4395     Zr4405   2.377       .  S
O4396     Zr4405   2.363       .  S
O4396      H4421   0.966       .  S
C4397      C4445   1.467       .  S
C4398      C4611   1.498       .  S
C4399      C4519   1.482       .  S
O4400      H4436   0.990       .  S
O4401      C4403   1.290       .  A
O4402      C4403   1.294       .  A
C4403      C4607   1.497       .  S
O4404      H4433   0.991       .  S
Zr4405     O4410   2.396       .  S
Zr4405     O4408   2.423       .  S
Zr4405     O4409   2.444       .  S
O4406      C4411   1.286       .  A
O4407      H4424   0.989       .  S
O4407      H4439   0.984       .  S
O4408      H4425   0.990       .  S
O4409      H4429   0.990       .  S
O4409      H4438   0.987       .  S
O4410      C4411   1.273       .  A
O4412      H4431   0.988       .  S
O4413      H4427   0.989       .  S
O4413      H4434   0.989       .  S
O4414      C4418   1.288       .  A
O4415      C4418   1.292       .  A
O4416      H4426   0.990       .  S
O4417      H4430   0.988       .  S
C4418      C4447   1.483       .  S
C4441      N4442   1.377       .  A
C4441      N4446   1.359       .  A
C4441      C4496   1.480       .  S
N4442      C4443   1.375       .  A
C4443      N4444   1.355       .  A
C4443      C4638   1.495       .  S
N4444      C4445   1.356       .  A
C4445      N4446   1.351       .  A
C4447      N4448   1.378       .  A
C4447      N4452   1.359       .  A
C4449      N4450   1.355       .  A
C4449      C4554   1.498       .  S
C4451      N4452   1.351       .  A
C4451      C4475   1.467       .  S
Zr4453     O4455   2.454       .  S
Zr4453     O4456   2.446       .  S
Zr4453     O4459   2.468       .  S
Zr4453     O4461   2.365       .  S
Zr4453     O4462   2.357       .  S
Zr4453     O4454   2.393       .  S
O4454      H4510   0.984       .  S
O4454      H4518   0.985       .  S
O4455      C4475   1.284       .  A
O4456      C4477   1.288       .  A
O4457      C4476   1.286       .  A
O4458      C4477   1.291       .  A
O4459      C4476   1.293       .  A
O4460     Zr4468   2.393       .  S
O4462      H4497   0.965       .  S
O4463     Zr4466   2.406       .  S
O4463     Zr4483   2.392       .  S
O4463      H4500   0.964       .  S
O4464     Zr4467   2.404       .  S
O4464     Zr4483   2.397       .  S
Zr4465     O4484   2.447       .  S
Zr4465     O4492   2.436       .  S
Zr4465     O4480   2.473       .  S
Zr4465     O4471   2.388       .  S
Zr4465     O4472   2.398       .  S
Zr4465     O4490   2.425       .  S
Zr4466     O4473   2.388       .  S
Zr4466     O4485   2.434       .  S
Zr4467     O4474   2.397       .  S
Zr4467     O4469   2.428       .  S
Zr4468     O4494   2.445       .  S
Zr4468     O4495   2.427       .  S
Zr4468     O4470   2.448       .  S
O4469      H4506   0.988       .  S
O4470      H4501   0.990       .  S
O4470      H4515   0.988       .  S
O4472      H4498   0.962       .  S
O4473     Zr4483   2.378       .  S
O4474     Zr4483   2.364       .  S
O4474      H4499   0.966       .  S
C4476      C4529   1.495       .  S
O4478      H4514   0.990       .  S
O4479      C4481   1.290       .  A
O4480      C4481   1.294       .  A
C4481      C4601   1.499       .  S
O4482     Zr4483   2.445       .  S
O4482      H4511   0.991       .  S
Zr4483     O4488   2.394       .  S
Zr4483     O4486   2.423       .  S
Zr4483     O4487   2.444       .  S
O4485      H4502   0.989       .  S
O4485      H4517   0.985       .  S
O4486      H4503   0.990       .  S
O4487      H4507   0.990       .  S
O4487      H4516   0.987       .  S
O4488      C4489   1.273   1_565  A
O4490      H4509   0.988       .  S
O4490      H4513   0.989       .  S
O4491      H4505   0.989       .  S
O4491      H4512   0.989       .  S
O4492      C4496   1.287       .  A
O4493      C4496   1.291       .  A
O4494      H4504   0.991       .  S
O4495      H4508   0.988       .  S
C4519      N4520   1.359       .  A
N4520      C4521   1.350       .  A
N4522      C4523   1.355       .  A
C4523      N4524   1.376       .  A
C4523      C4559   1.497       .  S
C4525      N4526   1.359       .  A
C4525      N4530   1.377       .  A
C4525      C4658   1.481       .  S
N4526      C4527   1.351       .  A
C4527      N4528   1.356       .  A
C4527      C4553   1.467       .  S
N4528      C4529   1.355       .  A
C4529      N4530   1.375       .  A
Zr4531     O4533   2.454       .  S
Zr4531     O4846   2.446   1_554  S
Zr4531     O4537   2.470       .  S
Zr4531     O4851   2.365   1_554  S
Zr4531     O4540   2.357       .  S
Zr4531     O4853   2.393   1_554  S
Zr4531     O4542   2.404       .  S
O4532      H4588   0.984       .  S
O4532      H4908   0.984       .  S
O4533      C4553   1.285       .  A
O4534     Zr4843   2.447       .  S
O4534      C4555   1.288       .  A
O4535     Zr4545   2.459       .  S
O4535      C4554   1.286       .  A
O4536     Zr4544   2.466       .  S
O4536      C4555   1.291       .  A
O4537      C4554   1.294       .  A
O4538     Zr4546   2.395       .  S
O4538      C4553   1.272       .  A
O4539     Zr4843   2.365       .  S
O4539     Zr4544   2.409       .  S
O4539     Zr4858   2.362       .  S
O4540     Zr4545   2.397       .  S
O4540     Zr4546   2.363       .  S
O4540      H4575   0.965       .  S
O4541     Zr4843   2.393       .  S
O4541     Zr4544   2.405       .  S
O4541     Zr4561   2.393       .  S
O4541      H4578   0.964       .  S
O4542     Zr4545   2.403       .  S
O4542     Zr4873   2.398   1_554  S
Zr4543     O4562   2.448       .  S
Zr4543     O4882   2.439       .  S
Zr4543     O4558   2.474       .  S
Zr4543     O4861   2.387       .  S
Zr4543     O4550   2.399       .  S
Zr4543     O4551   2.366       .  S
Zr4543     O4864   2.390       .  S
Zr4543     O4568   2.423       .  S
Zr4544     O4557   2.473       .  S
Zr4544     O4550   2.402       .  S
Zr4544     O4551   2.389       .  S
Zr4544     O4563   2.434       .  S
Zr4544     O4556   2.418       .  S
Zr4545     O4571   2.471       .  S
Zr4545     O4549   2.372       .  S
Zr4545     O4552   2.398       .  S
Zr4545     O4547   2.429       .  S
Zr4545     O4569   2.427       .  S
Zr4546     O4851   2.362   1_554  S
Zr4546     O4549   2.381       .  S
Zr4546     O4862   2.396   1_554  S
Zr4546     O4572   2.444       .  S
Zr4546     O4573   2.425       .  S
Zr4546     O4860   2.448   1_554  S
O4547      H4584   0.988       .  S
O4548     Zr4858   2.448       .  S
O4548      H4891   0.990       .  S
O4548      H4593   0.988       .  S
O4549     Zr4855   2.388   1_554  S
O4550     Zr4858   2.396       .  S
O4550      H4576   0.962       .  S
O4551     Zr4561   2.377       .  S
O4552     Zr4855   2.390   1_554  S
O4552     Zr4873   2.362   1_554  S
O4552      H4577   0.966       .  S
C4555      C4603   1.482       .  S
O4556      H4592   0.990       .  S
O4557      C4559   1.290       .  A
O4558      C4559   1.295       .  A
O4560      H4589   0.991       .  S
Zr4561     O4566   2.397       .  S
Zr4561     O4854   2.398       .  S
Zr4561     O4864   2.363       .  S
Zr4561     O4564   2.423       .  S
Zr4561     O4877   2.444       .  S
O4562      C4567   1.286       .  A
O4563      H4580   0.989       .  S
O4563      H4595   0.984       .  S
O4564      H4581   0.990       .  S
O4565     Zr4873   2.444   1_554  S
O4565      H4897   0.990       .  S
O4565      H4594   0.987       .  S
O4566      C4567   1.273       .  A
C4567      C4599   1.465       .  S
O4568      H4899   0.988       .  S
O4569      H4583   0.989       .  S
O4569      H4590   0.989       .  S
O4570     Zr4855   2.440   1_554  S
O4570      C4574   1.288       .  A
O4571      C4574   1.292       .  A
O4572      H4582   0.990       .  S
O4573      H4586   0.988       .  S
C4574      C4609   1.483       .  S
H4579      O4860   0.990   1_554  S
H4585      O4877   0.990       .  S
H4587      O4880   0.988   1_554  S
H4596      O4844   0.984       .  S
C4597      N4598   1.359       .  A
C4597      N4602   1.379       .  A
C4597      C4639   1.482       .  S
N4598      C4599   1.350       .  A
C4599      N4600   1.356       .  A
N4600      C4601   1.355       .  A
C4601      N4602   1.377       .  A
C4603      N4604   1.359       .  A
N4604      C4605   1.350       .  A
N4606      C4607   1.355       .  A
C4607      N4608   1.376       .  A
C4609      N4610   1.378       .  A
C4609      N4614   1.359       .  A
C4611      N4612   1.355       .  A
C4613      N4614   1.351       .  A
C4613      C4637   1.467       .  S
Zr4615     O4617   2.454       .  S
Zr4615     O4930   2.446   1_554  S
Zr4615     O4621   2.468       .  S
Zr4615     O4935   2.366   1_554  S
Zr4615     O4624   2.357       .  S
Zr4615     O4937   2.393   1_554  S
Zr4615     O4626   2.403       .  S
Zr4615     O4616   2.393       .  S
O4616      H4672   0.984       .  S
O4616      H4992   0.985       .  S
O4617      C4637   1.284       .  A
O4618     Zr4927   2.446       .  S
O4618      C4639   1.288       .  A
O4619     Zr4629   2.454       .  S
O4619      C4638   1.286       .  A
O4620     Zr4628   2.468       .  S
O4620      C4639   1.291       .  A
O4621      C4638   1.293       .  A
O4622     Zr4630   2.393       .  S
O4623     Zr4927   2.365       .  S
O4623     Zr4628   2.409       .  S
O4624     Zr4629   2.396       .  S
O4624      H4659   0.965       .  S
O4625     Zr4927   2.393       .  S
O4625     Zr4628   2.406       .  S
O4625      H4662   0.964       .  S
O4626     Zr4629   2.404       .  S
Zr4627     O4646   2.447       .  S
Zr4627     O4966   2.436       .  S
Zr4627     O4642   2.474       .  S
Zr4627     O4652   2.424       .  S
Zr4630     O4633   2.381       .  S
Zr4630     O4946   2.396   1_554  S
Zr4630     O4656   2.445       .  S
Zr4630     O4657   2.427       .  S
Zr4630     O4944   2.448   1_554  S
O4631      H4668   0.988       .  S
O4632     Zr4942   2.448       .  S
O4632      H4975   0.990       .  S
O4632      H4677   0.988       .  S
O4634     Zr4942   2.397       .  S
O4634      H4660   0.962       .  S
O4635     Zr4645   2.378       .  S
O4636     Zr4957   2.364   1_554  S
O4636      H4661   0.966       .  S
O4640      H4676   0.990       .  S
O4641      C4643   1.290       .  A
O4642      C4643   1.295       .  A
O4644     Zr4645   2.445       .  S
O4644      H4673   0.991       .  S
Zr4645     O4650   2.395       .  S
Zr4645     O4948   2.364       .  S
Zr4645     O4648   2.423       .  S
Zr4645     O4961   2.445       .  S
O4647      H4664   0.989       .  S
O4647      H4679   0.985       .  S
O4648      H4665   0.990       .  S
O4649     Zr4957   2.445   1_554  S
O4649      H4981   0.990       .  S
O4649      H4678   0.987       .  S
O4650      C4651   1.273   1_565  A
O4652      H4983   0.988       .  S
O4652      H4675   0.989       .  S
O4653      H4667   0.989       .  S
O4653      H4674   0.989       .  S
O4654     Zr4939   2.436   1_554  S
O4654      C4658   1.287       .  A
O4655      C4658   1.291       .  A
O4656      H4666   0.991       .  S
O4657      H4670   0.988       .  S
H4663      O4944   0.990   1_554  S
H4669      O4961   0.990       .  S
H4671      O4964   0.988   1_554  S
H4680      O4928   0.985       .  S
C4681      N4682   1.379       .  A
C4681      N4686   1.359       .  A
C4681      C4789   1.482       .  S
N4682      C4683   1.377       .  A
C4683      N4684   1.355       .  A
C4683      C4955   1.499       .  S
N4684      C4685   1.356       .  A
C4685      N4686   1.350       .  A
C4685      C4723   1.464       .  S
Zr4687     O4689   2.454       .  S
Zr4687     O4690   2.447       .  S
Zr4687     O4693   2.470       .  S
Zr4687     O4695   2.365       .  S
Zr4687     O4696   2.358       .  S
Zr4687     O4697   2.393       .  S
Zr4687     O4698   2.404       .  S
O4688      H4744   0.984       .  S
O4688      H4752   0.984       .  S
O4689      C4709   1.285       .  A
O4690      C4711   1.288       .  A
O4691     Zr4701   2.458       .  S
O4691      C4710   1.286       .  A
O4692     Zr4700   2.466       .  S
O4692      C4711   1.291       .  A
O4693      C4710   1.294       .  A
O4694     Zr4702   2.393       .  S
O4694      C4709   1.271       .  A
O4695     Zr4700   2.408       .  S
O4695     Zr4702   2.362       .  S
O4696     Zr4701   2.397       .  S
O4696     Zr4702   2.363       .  S
O4696      H4731   0.965       .  S
O4697     Zr4700   2.405       .  S
O4697     Zr4717   2.393       .  S
O4697      H4734   0.964       .  S
O4698     Zr4701   2.403       .  S
O4698     Zr4717   2.398       .  S
Zr4699     O4718   2.446       .  S
Zr4699     O4726   2.439       .  S
Zr4699     O4714   2.474       .  S
Zr4699     O4705   2.388       .  S
Zr4699     O4706   2.398       .  S
Zr4699     O4707   2.367       .  S
Zr4699     O4708   2.391       .  S
Zr4699     O4724   2.424       .  S
Zr4700     O4713   2.473       .  S
Zr4700     O4706   2.402       .  S
Zr4700     O4707   2.389       .  S
Zr4700     O4719   2.434       .  S
Zr4700     O4712   2.418       .  S
Zr4701     O4727   2.471       .  S
Zr4701     O4705   2.372       .  S
Zr4701     O4708   2.398       .  S
Zr4701     O4703   2.429       .  S
Zr4701     O4725   2.427       .  S
Zr4702     O4705   2.380       .  S
Zr4702     O4706   2.395       .  S
Zr4702     O4728   2.444       .  S
Zr4702     O4729   2.425       .  S
Zr4702     O4704   2.448       .  S
O4703      H4740   0.988       .  S
O4704      H4735   0.990       .  S
O4704      H4749   0.988       .  S
O4706      H4732   0.962       .  S
O4707     Zr4717   2.377       .  S
O4708     Zr4717   2.363       .  S
O4708      H4733   0.966       .  S
C4709      C4757   1.467       .  S
C4710      C4923   1.498       .  S
C4711      C4831   1.482       .  S
O4712      H4748   0.990       .  S
O4713      C4715   1.290       .  A
O4714      C4715   1.294       .  A
C4715      C4919   1.497       .  S
O4716      H4745   0.991       .  S
Zr4717     O4722   2.396       .  S
Zr4717     O4720   2.423       .  S
Zr4717     O4721   2.444       .  S
O4718      C4723   1.286       .  A
O4719      H4736   0.989       .  S
O4719      H4751   0.984       .  S
O4720      H4737   0.990       .  S
O4721      H4741   0.990       .  S
O4721      H4750   0.987       .  S
O4722      C4723   1.273       .  A
O4724      H4743   0.988       .  S
O4725      H4739   0.989       .  S
O4725      H4746   0.989       .  S
O4726      C4730   1.287       .  A
O4727      C4730   1.292       .  A
O4728      H4738   0.990       .  S
O4729      H4742   0.988       .  S
C4730      C4759   1.482       .  S
C4753      N4754   1.377       .  A
C4753      N4758   1.359       .  A
C4753      C4808   1.481       .  S
N4754      C4755   1.375       .  A
C4755      N4756   1.355       .  A
C4755      C4950   1.495       .  S
N4756      C4757   1.356       .  A
C4757      N4758   1.351       .  A
C4759      N4760   1.378       .  A
C4759      N4764   1.359       .  A
C4761      N4762   1.355       .  A
C4761      C4866   1.498       .  S
C4763      N4764   1.351       .  A
C4763      C4787   1.467       .  S
Zr4765     O4767   2.454       .  S
Zr4765     O4768   2.446       .  S
Zr4765     O4771   2.468       .  S
Zr4765     O4773   2.366       .  S
Zr4765     O4774   2.357       .  S
Zr4765     O4766   2.394       .  S
O4766      H4822   0.984       .  S
O4766      H4830   0.985       .  S
O4767      C4787   1.284       .  A
O4768      C4789   1.288       .  A
O4769      C4788   1.286       .  A
O4770      C4789   1.291       .  A
O4771      C4788   1.293       .  A
O4772     Zr4780   2.392       .  S
O4774      H4809   0.965       .  S
O4775     Zr4778   2.406       .  S
O4775     Zr4795   2.392       .  S
O4775      H4812   0.964       .  S
O4776     Zr4779   2.404       .  S
O4776     Zr4795   2.397       .  S
Zr4777     O4796   2.446       .  S
Zr4777     O4804   2.436       .  S
Zr4777     O4792   2.473       .  S
Zr4777     O4783   2.388       .  S
Zr4777     O4784   2.398       .  S
Zr4777     O4802   2.424       .  S
Zr4778     O4785   2.388       .  S
Zr4778     O4797   2.433       .  S
Zr4779     O4786   2.397       .  S
Zr4779     O4781   2.428       .  S
Zr4780     O4806   2.445       .  S
Zr4780     O4807   2.427       .  S
Zr4780     O4782   2.448       .  S
O4781      H4818   0.988       .  S
O4782      H4813   0.990       .  S
O4782      H4827   0.988       .  S
O4784      H4810   0.962       .  S
O4785     Zr4795   2.378       .  S
O4786     Zr4795   2.364       .  S
O4786      H4811   0.966       .  S
C4788      C4841   1.495       .  S
O4790      H4826   0.990       .  S
O4791      C4793   1.290       .  A
O4792      C4793   1.294       .  A
C4793      C4913   1.499       .  S
O4794     Zr4795   2.445       .  S
O4794      H4823   0.991       .  S
Zr4795     O4800   2.395       .  S
Zr4795     O4798   2.422       .  S
Zr4795     O4799   2.445       .  S
O4797      H4814   0.989       .  S
O4797      H4829   0.985       .  S
O4798      H4815   0.990       .  S
O4799      H4819   0.990       .  S
O4799      H4828   0.987       .  S
O4800      C4801   1.273   1_565  A
O4802      H4821   0.988       .  S
O4802      H4825   0.989       .  S
O4803      H4817   0.989       .  S
O4803      H4824   0.989       .  S
O4804      C4808   1.287       .  A
O4805      C4808   1.291       .  A
O4806      H4816   0.991       .  S
O4807      H4820   0.988       .  S
C4831      N4832   1.359       .  A
N4832      C4833   1.350       .  A
N4834      C4835   1.355       .  A
C4835      N4836   1.376       .  A
C4835      C4871   1.497       .  S
C4837      N4838   1.359       .  A
C4837      N4842   1.377       .  A
C4837      C4970   1.480       .  S
N4838      C4839   1.351       .  A
C4839      N4840   1.356       .  A
C4839      C4865   1.467       .  S
N4840      C4841   1.355       .  A
C4841      N4842   1.375       .  A
Zr4843     O4845   2.455       .  S
Zr4843     O4849   2.470       .  S
Zr4843     O4852   2.357       .  S
Zr4843     O4854   2.404       .  S
O4844      H4900   0.984       .  S
O4845      C4865   1.285       .  A
O4846      C4867   1.288       .  A
O4847     Zr4857   2.458       .  S
O4847      C4866   1.286       .  A
O4848     Zr4856   2.466       .  S
O4848      C4867   1.291       .  A
O4849      C4866   1.294       .  A
O4850     Zr4858   2.395       .  S
O4850      C4865   1.272       .  A
O4851     Zr4856   2.408       .  S
O4852     Zr4857   2.397       .  S
O4852     Zr4858   2.363       .  S
O4852      H4887   0.965       .  S
O4853     Zr4856   2.405       .  S
O4853     Zr4873   2.393       .  S
O4853      H4890   0.964       .  S
O4854     Zr4857   2.403       .  S
Zr4855     O4874   2.447       .  S
Zr4855     O4870   2.474       .  S
Zr4855     O4862   2.399       .  S
Zr4855     O4863   2.366       .  S
Zr4855     O4880   2.423       .  S
Zr4856     O4869   2.473       .  S
Zr4856     O4862   2.401       .  S
Zr4856     O4863   2.389       .  S
Zr4856     O4875   2.434       .  S
Zr4856     O4868   2.419       .  S
Zr4857     O4883   2.472       .  S
Zr4857     O4861   2.371       .  S
Zr4857     O4864   2.398       .  S
Zr4857     O4859   2.429       .  S
Zr4857     O4881   2.427       .  S
Zr4858     O4861   2.381       .  S
Zr4858     O4884   2.444       .  S
Zr4858     O4885   2.426       .  S
O4859      H4896   0.988       .  S
O4860      H4905   0.988       .  S
O4862      H4888   0.962       .  S
O4863     Zr4873   2.377       .  S
O4864      H4889   0.966       .  S
C4867      C4915   1.482       .  S
O4868      H4904   0.990       .  S
O4869      C4871   1.290       .  A
O4870      C4871   1.294       .  A
O4872      H4901   0.991       .  S
Zr4873     O4878   2.397       .  S
Zr4873     O4876   2.423       .  S
O4874      C4879   1.286       .  A
O4875      H4892   0.989       .  S
O4875      H4907   0.984       .  S
O4876      H4893   0.990       .  S
O4877      H4906   0.987       .  S
O4878      C4879   1.273       .  A
C4879      C4911   1.465       .  S
O4881      H4895   0.989       .  S
O4881      H4902   0.989       .  S
O4882      C4886   1.288       .  A
O4883      C4886   1.292       .  A
O4884      H4894   0.990       .  S
O4885      H4898   0.988       .  S
C4886      C4921   1.482       .  S
C4909      N4910   1.359       .  A
C4909      N4914   1.379       .  A
C4909      C4951   1.483       .  S
N4910      C4911   1.350       .  A
C4911      N4912   1.356       .  A
N4912      C4913   1.355       .  A
C4913      N4914   1.377       .  A
C4915      N4916   1.359       .  A
N4916      C4917   1.350       .  A
N4918      C4919   1.355       .  A
C4919      N4920   1.376       .  A
C4921      N4922   1.378       .  A
C4921      N4926   1.359       .  A
C4923      N4924   1.355       .  A
C4925      N4926   1.351       .  A
C4925      C4949   1.467       .  S
Zr4927     O4929   2.454       .  S
Zr4927     O4933   2.468       .  S
Zr4927     O4936   2.357       .  S
Zr4927     O4938   2.403       .  S
Zr4927     O4928   2.393       .  S
O4928      H4984   0.984       .  S
O4929      C4949   1.284       .  A
O4930      C4951   1.288       .  A
O4931     Zr4941   2.454       .  S
O4931      C4950   1.286       .  A
O4932     Zr4940   2.468       .  S
O4932      C4951   1.291       .  A
O4933      C4950   1.293       .  A
O4934     Zr4942   2.393       .  S
O4935     Zr4940   2.409       .  S
O4936     Zr4941   2.396       .  S
O4936      H4971   0.965       .  S
O4937     Zr4940   2.406       .  S
O4937      H4974   0.964       .  S
O4938     Zr4941   2.404       .  S
Zr4939     O4958   2.447       .  S
Zr4939     O4954   2.473       .  S
Zr4939     O4964   2.424       .  S
Zr4942     O4945   2.382       .  S
Zr4942     O4968   2.445       .  S
Zr4942     O4969   2.427       .  S
O4943      H4980   0.988       .  S
O4944      H4989   0.988       .  S
O4946      H4972   0.962       .  S
O4947     Zr4957   2.378       .  S
O4948      H4973   0.966       .  S
O4952      H4988   0.990       .  S
O4953      C4955   1.290       .  A
O4954      C4955   1.294       .  A
O4956     Zr4957   2.445       .  S
O4956      H4985   0.991       .  S
Zr4957     O4962   2.395       .  S
Zr4957     O4960   2.423       .  S
O4959      H4976   0.989       .  S
O4959      H4991   0.985       .  S
O4960      H4977   0.990       .  S
O4961      H4990   0.987       .  S
O4962      C4963   1.273   1_565  A
O4964      H4987   0.989       .  S
O4965      H4979   0.989       .  S
O4965      H4986   0.989       .  S
O4966      C4970   1.287       .  A
O4967      C4970   1.291       .  A
O4968      H4978   0.991       .  S
O4969      H4982   0.988       .  S
