geometry optimzed in LAMMPS
_audit_creation_date              2020-11-30 
_audit_creation_method            'lammps2cif' 
_symmetry_space_group_name_H-M    'P1' 
_symmetry_Int_Tables_number       1 
_symmetry_cell_setting            triclinic 
loop_ 
_symmetry_equiv_pos_as_xyz 
  x,y,z 
_cell_length_a                    28.735293527030695 
_cell_length_b                    28.319965644120416 
_cell_length_c                    32.38985156040242 
_cell_angle_alpha                 89.55845018966767 
_cell_angle_beta                  93.45720125622587 
_cell_angle_gamma                 89.83765258151915 
loop_ 
_atom_site_label 
_atom_site_type_symbol 
_atom_site_fract_x 
_atom_site_fract_y 
_atom_site_fract_z 
_atom_site_charge 
N1          N  0.24958165  0.75794070  0.31870579    -0.07010
N2          N  0.22269286  0.79562608  0.32088866    -0.59130
N3          N  0.31390551  0.68964867  0.26194992    -0.06690
N4          N  0.33068792  0.68797772  0.22489574    -0.61260
N5          N  0.27039272  0.67548578  0.26023891    -0.06290
N6          N  0.25639392  0.66469787  0.22187322    -0.59110
N7          N  0.29382801  0.77044552  0.32223939    -0.05970
N8          N  0.29779679  0.81667389  0.32665361    -0.61610
C9          C  0.25311477  0.83198321  0.32589930     0.95170
C10         C  0.29457013  0.67207605  0.20014647     0.94940
N11         N  0.40688888  0.62993871  0.34865488    -0.07200
N12         N  0.43389941  0.59500618  0.33719913    -0.59710
N13         N  0.38838290  0.74212856  0.37510739    -0.05320
N14         N  0.42119858  0.77469016  0.37456664    -0.60960
N15         N  0.39665797  0.71370320  0.40710941    -0.07230
N16         N  0.43469454  0.72699059  0.42876447    -0.59980
N17         N  0.39960295  0.66019762  0.31784910    -0.04960
N18         N  0.42149970  0.64722428  0.28534227    -0.61050
Mn19       Mn  0.34914348  0.71700367  0.31915051     1.18440
C20         C  0.44281758  0.60682357  0.29770371     0.97250
C21         C  0.44978167  0.76512626  0.40831154     0.97910
N22         N  0.21217690  0.60398108  0.31528011    -0.07250
N23         N  0.20118136  0.57249026  0.28590148    -0.63550
N24         N  0.19410976  0.66755678  0.40201253    -0.06050
N25         N  0.15911385  0.67328318  0.42615107    -0.64230
N26         N  0.18602626  0.69118986  0.36728467    -0.06750
N27         N  0.14596112  0.71396302  0.36736635    -0.63820
N28         N  0.21853462  0.58204029  0.35118035    -0.05650
N29         N  0.21238378  0.53645816  0.34734150    -0.64510
Mn30       Mn  0.22825180  0.68210752  0.31398766     1.10660
C31         C  0.20140006  0.53042819  0.30692564     0.98470
C32         C  0.12947606  0.70284273  0.40436214     0.98550
N33         N  0.33026781  0.65324553  0.46284458    -0.06760
N34         N  0.34551795  0.66281348  0.50127128    -0.62130
N35         N  0.30234822  0.55813625  0.40989608    -0.06080
N36         N  0.29668739  0.51339985  0.42008802    -0.58860
N37         N  0.34675299  0.56784702  0.40782399    -0.07390
N38         N  0.37221674  0.52989093  0.41646561    -0.61700
N39         N  0.28512497  0.64444059  0.46150023    -0.06380
N40         N  0.26904378  0.64719347  0.49861836    -0.58890
Mn41       Mn  0.37109103  0.64080662  0.40716630     1.20190
Mn42       Mn  0.24917642  0.61353779  0.40689854     1.10090
Cl43       Cl  0.29938728  0.66393744  0.36213091    -0.86860
C44         C  0.30671315  0.65934011  0.52295373     0.95480
C45         C  0.34056173  0.49593622  0.42335378     0.95270
N46         N  0.31448026  0.65122174  0.96083306    -0.07010
N47         N  0.32968364  0.66292269  0.99870550    -0.59130
N48         N  0.28808587  0.55472574  0.91051328    -0.06690
N49         N  0.28359041  0.51059727  0.92332672    -0.61260
N50         N  0.33225057  0.56491305  0.90748943    -0.06290
N51         N  0.35859243  0.52811366  0.91757641    -0.59110
N52         N  0.26926423  0.64304007  0.95961171    -0.05970
N53         N  0.25313387  0.64863046  0.99657422    -0.61610
C54         C  0.29099568  0.66164279  0.02068717     0.95170
C55         C  0.32796929  0.49419215  0.92666590     0.94940
N56         N  0.20008623  0.59961829  0.81215639    -0.07200
N57         N  0.18738797  0.56878599  0.78284334    -0.59710
N58         N  0.17871228  0.66414173  0.89702760    -0.05320
N59         N  0.14269606  0.67022096  0.92005679    -0.60960
N60         N  0.17147979  0.68660188  0.86147709    -0.07230
N61         N  0.13067206  0.70823993  0.85955985    -0.59980
N62         N  0.20571909  0.57749932  0.84812572    -0.04960
N63         N  0.19757204  0.53209142  0.84421079    -0.61050
Mn64       Mn  0.23439753  0.61019157  0.90471989     1.18440
C65         C  0.18592618  0.52690521  0.80375854     0.97250
C66         C  0.11325153  0.69797016  0.89626697     0.97910
N67         N  0.39449026  0.62482080  0.84924642    -0.07250
N68         N  0.42246695  0.58989158  0.83932478    -0.63550
N69         N  0.37581122  0.73778920  0.87426908    -0.06050
N70         N  0.40988450  0.76920538  0.87473436    -0.64230
N71         N  0.38167437  0.70963175  0.90668041    -0.06750
N72         N  0.41882436  0.72199481  0.92978632    -0.63820
N73         N  0.38851605  0.65459582  0.81797596    -0.05650
N74         N  0.41219858  0.64120410  0.78655520    -0.64510
Mn75       Mn  0.35625770  0.63728507  0.90632058     1.10660
C76         C  0.43343471  0.60115350  0.80021350     0.98470
C77         C  0.43615624  0.75921085  0.90982816     0.98550
N78         N  0.23799649  0.75387185  0.81404398    -0.06760
N79         N  0.21176569  0.79231416  0.81566624    -0.62130
N80         N  0.30465878  0.68421569  0.76079053    -0.06080
N81         N  0.32361650  0.68273501  0.72480291    -0.58860
N82         N  0.26129195  0.66955760  0.75738786    -0.07390
N83         N  0.24971574  0.65798617  0.71857945    -0.61700
N84         N  0.28245789  0.76554357  0.81847197    -0.06380
N85         N  0.28713514  0.81161000  0.82277819    -0.58890
Mn86       Mn  0.21637913  0.67745946  0.80977764     1.20190
Mn87       Mn  0.33793105  0.71190397  0.81783423     1.10090
Cl88       Cl  0.28583449  0.65985739  0.85997123    -0.86860
C89         C  0.24286658  0.82821106  0.82108240     0.95480
C90         C  0.28928479  0.66598395  0.69887645     0.95270
N91         N  0.85856917  0.76986987  0.94834226    -0.07010
N92         N  0.88934485  0.75528841  0.92207410    -0.59130
N93         N  0.79639269  0.74906108  0.03131864    -0.06690
N94         N  0.79369041  0.71166434  0.05587119    -0.61260
N95         N  0.77280846  0.74154441  0.99590431    -0.06290
N96         N  0.75338936  0.69954799  0.99589482    -0.59110
N97         N  0.88020592  0.77804662  0.98456395    -0.05970
N98         N  0.92500486  0.76952350  0.98385970    -0.61610
C99         C  0.93085482  0.75561737  0.94497556     0.95170
C100        C  0.76656718  0.68105788  0.03327024     0.94940
N101        N  0.80153565  0.88656379  0.08532872    -0.07200
N102        N  0.79155827  0.90172346  0.12230292    -0.59710
N103        N  0.89879256  0.86499609  0.04105490    -0.05320
N104        N  0.94307638  0.86305820  0.05474157    -0.60960
N105        N  0.88564946  0.90911835  0.03566826    -0.07230
N106        N  0.92039835  0.93791110  0.04502569    -0.59980
N107        N  0.81304448  0.84146304  0.08733772    -0.04960
N108        N  0.81149065  0.82528554  0.12545055    -0.61050
Mn109      Mn  0.84707295  0.80752255  0.03680820     1.18440
C110        C  0.79718397  0.86283756  0.14670709     0.97250
C111        C  0.95635322  0.90895450  0.05618623     0.97910
N112        N  0.70524198  0.80462918  0.93673430    -0.07250
N113        N  0.66729573  0.77802926  0.93415722    -0.63550
N114        N  0.77459015  0.87241894  0.88402004    -0.06050
N115        N  0.77726427  0.89021209  0.84656642    -0.64230
N116        N  0.78935522  0.82852750  0.88548679    -0.06750
N117        N  0.80211603  0.81545060  0.84880454    -0.63820
N118        N  0.69307439  0.84951322  0.93611409    -0.05650
N119        N  0.64751611  0.85437924  0.93295478    -0.64510
Mn120      Mn  0.78128594  0.78467798  0.94060162     1.10660
C121        C  0.63146881  0.80978801  0.93187123     0.98470
C122        C  0.79474755  0.85452117  0.82483512     0.98550
N123        N  0.82476112  0.96756122  0.96972197    -0.06760
N124        N  0.85976142  0.99484068  0.95947679    -0.62130
N125        N  0.71380889  0.94172435  0.98817812    -0.06080
N126        N  0.67736005  0.97037026  0.98631866    -0.58860
N127        N  0.73950146  0.94888029  0.02246240    -0.07390
N128        N  0.72052404  0.98147677  0.04481365    -0.61700
N129        N  0.79689458  0.95962483  0.93684071    -0.06380
N130        N  0.81139976  0.98143768  0.90407882    -0.58890
Mn131      Mn  0.81291147  0.92905540  0.02874748     1.20190
Mn132      Mn  0.74358363  0.90617506  0.93603818     1.10090
Cl133      Cl  0.79591610  0.85663113  0.98576996    -0.86860
C134        C  0.85037914  0.00343925  0.91842143     0.95480
C135        C  0.68145497  0.99418991  0.02239140     0.95270
N136        N  0.86913344  0.76409642  0.44709024    -0.07010
N137        N  0.90017603  0.75026016  0.42087823    -0.59130
N138        N  0.80288419  0.74277621  0.52811745    -0.06690
N139        N  0.79602503  0.70596888  0.55239392    -0.61260
N140        N  0.78088613  0.73690038  0.49178419    -0.06290
N141        N  0.75826290  0.69653179  0.49082244    -0.59110
N142        N  0.88971104  0.76884740  0.48424578    -0.05970
N143        N  0.93420567  0.75845260  0.48438252    -0.61610
C144        C  0.94060207  0.74682199  0.44500891     0.95170
C145        C  0.76772967  0.67745117  0.52877296     0.94940
N146        N  0.81378130  0.87795501  0.58607129    -0.07200
N147        N  0.80305328  0.89239859  0.62299438    -0.59710
N148        N  0.91051574  0.85150780  0.54341235    -0.05320
N149        N  0.95311192  0.84500720  0.56009746    -0.60960
N150        N  0.90102032  0.89678433  0.53969223    -0.07230
N151        N  0.93704619  0.92189152  0.55360228    -0.59980
N152        N  0.82234129  0.83222115  0.58698908    -0.04960
N153        N  0.81792051  0.81496169  0.62440345    -0.61050
Mn154      Mn  0.85608982  0.79797907  0.53635995     1.18440
C155        C  0.80553897  0.85264690  0.64662498     0.97250
C156        C  0.96959952  0.88924385  0.56542146     0.97910
N157        N  0.71841184  0.80452039  0.43413032    -0.07250
N158        N  0.68025782  0.77839695  0.43188871    -0.63550
N159        N  0.79077933  0.87175239  0.38421481    -0.06050
N160        N  0.79242878  0.89049488  0.34700594    -0.64230
N161        N  0.80401842  0.82733893  0.38428229    -0.06750
N162        N  0.81467615  0.81480832  0.34674441    -0.63820
N163        N  0.70714107  0.84968297  0.43454385    -0.05650
N164        N  0.66152418  0.85530512  0.43208714    -0.64510
Mn165      Mn  0.79307081  0.78189881  0.43817221     1.10660
C166        C  0.64529011  0.81070273  0.43078581     0.98470
C167        C  0.80806651  0.85494134  0.32413897     0.98550
N168        N  0.84366966  0.96185536  0.47416417    -0.06760
N169        N  0.87886597  0.98989120  0.46590721    -0.62130
N170        N  0.73121403  0.94033453  0.48959386    -0.06080
N171        N  0.69486935  0.96917492  0.48847647    -0.58860
N172        N  0.75677675  0.94593922  0.52422202    -0.07390
N173        N  0.73793586  0.97776099  0.54754269    -0.61700
N174        N  0.81690802  0.95505263  0.44033812    -0.06380
N175        N  0.83309784  0.97740960  0.40859711    -0.58890
Mn176      Mn  0.82909398  0.92175147  0.53150702     1.20190
Mn177      Mn  0.76041014  0.90467703  0.43692050     1.10090
Cl178      Cl  0.80936724  0.85146848  0.48591151    -0.86860
C179        C  0.87141383  0.99908087  0.42479164     0.95480
C180        C  0.69921287  0.99185960  0.52515267     0.95270
N181        N  0.56602314  0.46162264  0.13208161    -0.07010
N182        N  0.53197082  0.49086176  0.14065182    -0.59130
N183        N  0.67759838  0.44170773  0.11440616    -0.06690
N184        N  0.71377529  0.47056012  0.11534812    -0.61260
N185        N  0.65126859  0.44855343  0.08021157    -0.06290
N186        N  0.66942397  0.48133695  0.05712091    -0.59110
N187        N  0.59327658  0.45345940  0.16554239    -0.05970
N188        N  0.57869203  0.47657199  0.19735052    -0.61610
C189        C  0.54081457  0.49978466  0.18142312     0.95170
C190        C  0.70851183  0.49467201  0.07909891     0.94940
N191        N  0.69491729  0.30362837  0.16575909    -0.07200
N192        N  0.73359248  0.27812475  0.16745447    -0.59710
N193        N  0.62187630  0.36641715  0.21992702    -0.05320
N194        N  0.61758163  0.38336388  0.25736061    -0.60960
N195        N  0.61128529  0.32131243  0.21881687    -0.07230
N196        N  0.60040987  0.30637573  0.25582468    -0.59980
N197        N  0.70526461  0.34892147  0.16699571    -0.04960
N198        N  0.75085747  0.35502515  0.16979270    -0.61050
Mn199      Mn  0.65050240  0.40317101  0.16713240     1.18440
C200        C  0.76829195  0.31062618  0.16982733     0.97250
C201        C  0.60384587  0.34571464  0.27931696     0.97910
N202        N  0.59211703  0.38370001  0.01708074    -0.07250
N203        N  0.60305608  0.39862383  0.98005762    -0.63550
N204        N  0.49709493  0.35490043  0.06358561    -0.06050
N205        N  0.45415346  0.34859088  0.04784034    -0.64230
N206        N  0.50641012  0.40011504  0.06689902    -0.06750
N207        N  0.46976349  0.42533556  0.05372841    -0.63820
N208        N  0.58349967  0.33810145  0.01616141    -0.05650
N209        N  0.58859107  0.32108524  0.97901260    -0.64510
Mn210      Mn  0.57878124  0.42465803  0.07358798     1.10660
C211        C  0.60135811  0.35886569  0.95680676     0.98470
C212        C  0.43702077  0.39280478  0.04281979     0.98550
N213        N  0.54525921  0.26102534  0.15582568    -0.06760
N214        N  0.51679961  0.24308508  0.18260248    -0.62130
N215        N  0.60669300  0.24837100  0.07125579    -0.06080
N216        N  0.61110785  0.21416156  0.04443098    -0.58860
N217        N  0.63058063  0.23876890  0.10624221    -0.07390
N218        N  0.65155449  0.19745084  0.10389141    -0.61700
N219        N  0.52227319  0.26838758  0.11992627    -0.06380
N220        N  0.47856933  0.25536828  0.12112248    -0.58890
Mn221      Mn  0.62084268  0.27978054  0.16263240     1.20190
Mn222      Mn  0.55248073  0.30191332  0.06740062     1.10090
Cl223      Cl  0.60089885  0.35234741  0.11761314    -0.86860
C224        C  0.47551218  0.23938184  0.16002019     0.95480
C225        C  0.63969238  0.18313300  0.06495754     0.95270
N226        N  0.49076328  0.34652897  0.56433148    -0.07010
N227        N  0.44869328  0.33914938  0.54697500    -0.59130
N228        N  0.58253062  0.37812799  0.51676385    -0.06690
N229        N  0.59244787  0.39369879  0.47968087    -0.61260
N230        N  0.57717890  0.33191409  0.51620282    -0.06290
N231        N  0.58354566  0.31517732  0.47904399    -0.59110
N232        N  0.49818263  0.39193646  0.56899241    -0.05970
N233        N  0.46112446  0.41603234  0.55527744    -0.61610
C234        C  0.43009386  0.38281740  0.54222676     0.95170
C235        C  0.59359798  0.35392904  0.45671353     0.94940
N236        N  0.66952181  0.44056545  0.60892360    -0.07200
N237        N  0.70506804  0.46996095  0.60667304    -0.59710
N238        N  0.55730758  0.45739122  0.63226399    -0.05320
N239        N  0.52217946  0.48434026  0.64292021    -0.60960
N240        N  0.58786465  0.45227380  0.66394339    -0.07230
N241        N  0.57472586  0.47544411  0.69634094    -0.59980
N242        N  0.64037356  0.44620946  0.57639673    -0.04960
N243        N  0.65579636  0.47853042  0.55133418    -0.61050
Mn244      Mn  0.56909449  0.41946969  0.57333062     1.18440
C245        C  0.69638920  0.49292839  0.57004993     0.97250
C246        C  0.53400167  0.49539908  0.68298285     0.97910
N247        N  0.60327034  0.24190336  0.57398036    -0.07250
N248        N  0.60806191  0.20526976  0.54953140    -0.63550
N249        N  0.54174914  0.25844008  0.65855732    -0.06050
N250        N  0.51281431  0.24425134  0.68661772    -0.64230
N251        N  0.51861978  0.26359891  0.62242417    -0.06750
N252        N  0.47432016  0.25353901  0.62492525    -0.63820
N253        N  0.62753410  0.23535700  0.60930536    -0.05650
N254        N  0.64951909  0.19445505  0.60937202    -0.64510
Mn255      Mn  0.54783071  0.29522218  0.56860235     1.10660
C256        C  0.63717847  0.17599760  0.57198598     0.98470
C257        C  0.47093980  0.24125224  0.66473805     0.98550
N258        N  0.61997640  0.36797389  0.71809633    -0.06760
N259        N  0.61701937  0.38663720  0.75498977    -0.62130
N260        N  0.69096630  0.30361009  0.66507337    -0.06080
N261        N  0.72936649  0.27791341  0.66924605    -0.58860
N262        N  0.70157188  0.34885740  0.66384549    -0.07390
N263        N  0.74729673  0.35458129  0.66755742    -0.61700
N264        N  0.60846239  0.32312638  0.71858112    -0.06380
N265        N  0.59832439  0.31012026  0.75628943    -0.58890
Mn266      Mn  0.64611425  0.40298040  0.66381064     1.20190
Mn267      Mn  0.61734702  0.27889251  0.66392522     1.10090
Cl268      Cl  0.59547571  0.34904398  0.61723274    -0.86860
C269        C  0.60313487  0.35040631  0.77850138     0.95480
C270        C  0.76436776  0.30995597  0.67083695     0.95270
N271        N  0.20194973  0.10385610  0.29191387    -0.07010
N272        N  0.21322783  0.07119586  0.32079343    -0.59130
N273        N  0.22186739  0.16899556  0.20558562    -0.06690
N274        N  0.25795670  0.17379365  0.18243556    -0.61260
N275        N  0.22963666  0.19154089  0.24059548    -0.06290
N276        N  0.27048238  0.21264609  0.24162906    -0.59110
N277        N  0.19626990  0.08326129  0.25562779    -0.05970
N278        N  0.20323932  0.03772627  0.25867774    -0.61610
C279        C  0.21379682  0.02996327  0.29899429     0.95170
C280        C  0.28786517  0.20173906  0.20512146     0.94940
N281        N  0.08505243  0.15529920  0.14420373    -0.07200
N282        N  0.06926587  0.16493697  0.10584927    -0.59710
N283        N  0.11281884  0.06030800  0.19549817    -0.05320
N284        N  0.11714014  0.01850504  0.17816613    -0.60960
N285        N  0.06863938  0.06990831  0.19969931    -0.07230
N286        N  0.04249691  0.03472590  0.18577805    -0.59980
N287        N  0.13051057  0.14838957  0.14551192    -0.04960
N288        N  0.14644693  0.15311065  0.10843143    -0.61050
Mn289      Mn  0.16623037  0.11590160  0.19986982     1.18440
C290        C  0.10812507  0.16412574  0.08408710     0.97250
C291        C  0.07293602  0.00239067  0.17297840     0.97910
N292        N  0.16581043  0.25889195  0.28806814    -0.07250
N293        N  0.19328138  0.29616511  0.28682583    -0.63550
N294        N  0.09966508  0.19175151  0.34386271    -0.06050
N295        N  0.08182787  0.19046885  0.38046731    -0.64230
N296        N  0.14299583  0.17660043  0.34657335    -0.06750
N297        N  0.15599417  0.16596916  0.38539234    -0.63820
N298        N  0.12172563  0.27226383  0.28341079    -0.05650
N299        N  0.11855902  0.31867786  0.27930121    -0.64510
Mn300      Mn  0.18636104  0.18250215  0.29334061     1.10660
C301        C  0.16348387  0.33325940  0.28141838     0.98470
C302        C  0.11725938  0.17438715  0.40606775     0.98550
N303        N  0.00791199  0.13256845  0.25861044    -0.06760
N304        N  0.98042413  0.09833873  0.27100422    -0.62130
N305        N  0.02601215  0.24473390  0.22926146    -0.06080
N306        N  0.99217875  0.27682937  0.22740010    -0.58860
N307        N  0.01983437  0.21562549  0.19794296    -0.07390
N308        N  0.98315521  0.22816475  0.17409395    -0.61700
N309        N  0.01504352  0.16335708  0.28851348    -0.06380
N310        N  0.99316137  0.15112808  0.32133049    -0.58890
Mn311      Mn  0.04467188  0.14282107  0.20005983     1.20190
Mn312      Mn  0.06539743  0.21970758  0.28622069     1.10090
Cl313      Cl  0.11584466  0.16581294  0.24467496    -0.86860
C314        C  0.97121508  0.11094632  0.31023408     0.95480
C315        C  0.96596340  0.26639677  0.19237872     0.95270
N316        N  0.19909256  0.10099405  0.79174712    -0.07010
N317        N  0.21016236  0.06921455  0.82127872    -0.59130
N318        N  0.21833126  0.16670755  0.70650541    -0.06690
N319        N  0.25495516  0.17153212  0.68397996    -0.61260
N320        N  0.22476927  0.19023408  0.74121518    -0.06290
N321        N  0.26526535  0.21219946  0.74264349    -0.59110
N322        N  0.19326680  0.07947049  0.75587687    -0.05970
N323        N  0.19978490  0.03374600  0.75996344    -0.61610
C324        C  0.21066222  0.02748146  0.80047405     0.95170
C325        C  0.28342832  0.20072449  0.70663218     0.94940
N326        N  0.08231473  0.15362154  0.64364273    -0.07200
N327        N  0.06706075  0.16391436  0.60527099    -0.59710
N328        N  0.11102034  0.05706588  0.69493022    -0.05320
N329        N  0.11752602  0.01316635  0.68308707    -0.60960
N330        N  0.06636923  0.06615786  0.69655935    -0.07230
N331        N  0.04161813  0.02863117  0.68604803    -0.59980
N332        N  0.12774790  0.14608027  0.64527802    -0.04960
N333        N  0.14407326  0.15120208  0.60832488    -0.61050
Mn334      Mn  0.16342353  0.11277462  0.69992775     1.18440
C335        C  0.10602721  0.16256480  0.58367608     0.97250
C336        C  0.07390101  0.99564119  0.67833693     0.97910
N337        N  0.15769287  0.25443452  0.79031917    -0.07250
N338        N  0.18278002  0.29343436  0.78816569    -0.63550
N339        N  0.09423009  0.18057612  0.84463611    -0.06050
N340        N  0.07671936  0.17679604  0.88124238    -0.64230
N341        N  0.13857534  0.16897798  0.84697647    -0.06750
N342        N  0.15247637  0.15807236  0.88552523    -0.63820
N343        N  0.11288432  0.26511736  0.78739416    -0.05650
N344        N  0.10684132  0.31118708  0.78351664    -0.64510
Mn345      Mn  0.18135987  0.17887832  0.79377425     1.10660
C346        C  0.15064053  0.32872330  0.78390142     0.98470
C347        C  0.11325838  0.16233434  0.90637034     0.98550
N348        N  0.00271014  0.12403898  0.75520917    -0.06760
N349        N  0.97361565  0.08964095  0.76399956    -0.62130
N350        N  0.01991868  0.23767710  0.73216631    -0.06080
N351        N  0.98698667  0.27056205  0.73169705    -0.58860
N352        N  0.01377370  0.21094432  0.69922684    -0.07390
N353        N  0.97718752  0.22552506  0.67601469    -0.61700
N354        N  0.00991459  0.15156038  0.78752873    -0.06380
N355        N  0.98655767  0.13670156  0.81879198    -0.58890
Mn356      Mn  0.04053447  0.13846477  0.69814247     1.20190
Mn357      Mn  0.05898927  0.20990794  0.78822339     1.10090
Cl358      Cl  0.11114480  0.16047497  0.74475258    -0.86860
C359        C  0.96403578  0.09835480  0.80379548     0.95480
C360        C  0.96110420  0.26327577  0.69597032     0.95270
C361        C  0.11487566  0.17145574  0.45149673    -0.01050
C362        C  0.07519755  0.15168210  0.46796643    -0.12920
C363        C  0.07120933  0.14870666  0.51087140     0.01190
C364        C  0.10700945  0.16681016  0.53809176    -0.01130
C365        C  0.14644811  0.18697661  0.52147953    -0.12860
C366        C  0.15053472  0.18966185  0.47864256     0.01070
H367        H  0.04772776  0.13755808  0.44725846     0.14050
H368        H  0.17402629  0.20108466  0.54205598     0.14060
C369        C  0.19047689  0.21349505  0.46335661     0.36350
C370        C  0.03154921  0.12421624  0.52596713     0.35610
N371        N  0.22226835  0.23293341  0.45106457    -0.44640
N372        N  0.99996611  0.10416163  0.53797696    -0.44630
C373        C  0.11217096  0.16085598  0.95184698    -0.01050
C374        C  0.14668410  0.18509809  0.97555596    -0.12920
C375        C  0.14489442  0.18814585  0.01854063     0.01190
C376        C  0.10829938  0.16615861  0.03854613    -0.01130
C377        C  0.07373775  0.14190537  0.01483014    -0.12860
C378        C  0.07550356  0.13900125  0.97178686     0.01070
H379        H  0.17442890  0.20286593  0.96032374     0.14050
H380        H  0.04612180  0.12390776  0.03007136     0.14060
C381        C  0.04068434  0.11144975  0.94900380     0.35710
C382        C  0.17987428  0.21574790  0.04122845     0.35610
N383        N  0.01294237  0.08901102  0.93086012    -0.44640
N384        N  0.20768406  0.23815903  0.05938753    -0.44630
C385        C  0.91150696  0.27735268  0.69030193    -0.01050
C386        C  0.87799884  0.24262927  0.69678495    -0.12920
C387        C  0.83029012  0.25237654  0.69102102     0.01190
C388        C  0.81491885  0.29796808  0.67789561    -0.01130
C389        C  0.84877144  0.33300035  0.67191642    -0.12860
C390        C  0.89673729  0.32301598  0.67808268     0.01070
H391        H  0.88927769  0.20752183  0.70670792     0.14050
H392        H  0.83785749  0.36816717  0.66201269     0.14060
C393        C  0.93013828  0.35957163  0.67061173     0.35710
C394        C  0.79833867  0.21485739  0.69986117     0.35610
N395        N  0.95698399  0.38881144  0.66451563    -0.44640
N396        N  0.77283512  0.18475078  0.70708157    -0.44630
C397        C  0.42500383  0.23302151  0.68155253    -0.01050
C398        C  0.41400432  0.18811543  0.69658177    -0.12920
C399        C  0.36771881  0.17662164  0.70416835     0.01190
C400        C  0.33210991  0.21085814  0.69780019    -0.01130
C401        C  0.34336142  0.25611778  0.68421977    -0.12860
C402        C  0.38909088  0.26707100  0.67513983     0.01070
H403        H  0.44101919  0.16134949  0.70027320     0.14050
H404        H  0.31608039  0.28248802  0.67943826     0.14060
C405        C  0.39789435  0.31289778  0.65742068     0.35710
C406        C  0.35730096  0.12931491  0.71766779     0.35610
N407        N  0.40480318  0.34925057  0.64249366    -0.44640
N408        N  0.34877515  0.09135898  0.72827351    -0.44630
C409        C  0.60126554  0.35310364  0.82397683    -0.01050
C410        C  0.61577646  0.31381535  0.84803404    -0.12920
C411        C  0.61800019  0.31566981  0.89126319     0.01190
C412        C  0.60483941  0.35740447  0.91136397    -0.01130
C413        C  0.59060266  0.39686923  0.88728978    -0.12860
C414        C  0.58852706  0.39502429  0.84396552     0.01070
H415        H  0.62658818  0.28181843  0.83302721     0.14050
H416        H  0.57958632  0.42877386  0.90229727     0.14060
C417        C  0.57114815  0.43591213  0.82088114     0.35710
C418        C  0.63542604  0.27462716  0.91410189     0.35610
N419        N  0.55699384  0.46863870  0.80248404    -0.44640
N420        N  0.64956007  0.24174831  0.93229433    -0.44630
C421        C  0.59962333  0.34668523  0.32453116    -0.01050
C422        C  0.63134618  0.32062686  0.35028773    -0.12920
C423        C  0.63080123  0.32363732  0.39347837     0.01190
C424        C  0.59799125  0.35305497  0.41146756    -0.01130
C425        C  0.56628278  0.37915109  0.38566180    -0.12860
C426        C  0.56674289  0.37595085  0.34247564     0.01070
H427        H  0.65729297  0.29871304  0.33661430     0.14050
H428        H  0.54022947  0.40098050  0.39927924     0.14060
C429        C  0.53168399  0.40095615  0.31708200     0.35710
C430        C  0.66550087  0.29787828  0.41873696     0.35610
N431        N  0.50325236  0.42033290  0.29654430    -0.44640
N432        N  0.69357838  0.27757633  0.43898150    -0.44630
C433        C  0.81912048  0.29958184  0.17369754    -0.01050
C434        C  0.85062301  0.33449901  0.18865587    -0.12920
C435        C  0.89871937  0.32523839  0.19431384     0.01190
C436        C  0.91630602  0.28056587  0.18429400    -0.01130
C437        C  0.88495433  0.24628506  0.16813024    -0.12860
C438        C  0.83703885  0.25511061  0.16306110     0.01070
H439        H  0.83762896  0.36900049  0.19666610     0.14050
H440        H  0.89765807  0.21156677  0.16035933     0.14060
C441        C  0.80751580  0.21767349  0.14658030     0.35710
C442        C  0.92928074  0.36230695  0.20968664     0.35610
N443        N  0.78409314  0.18747969  0.13342878    -0.44640
N444        N  0.95381045  0.39208892  0.22188596    -0.44630
C445        C  0.43057333  0.22438323  0.17527805    -0.01050
C446        C  0.41323986  0.24758965  0.20911597    -0.12920
C447        C  0.36669113  0.24182140  0.21890951     0.01190
C448        C  0.33684372  0.21123418  0.19504971    -0.01130
C449        C  0.35495549  0.18719410  0.16177634    -0.12860
C450        C  0.40113935  0.19372015  0.15165088     0.01070
H451        H  0.43532273  0.27232110  0.22648488     0.14050
H452        H  0.33302564  0.16325363  0.14340622     0.14060
C453        C  0.41761110  0.16851495  0.11671466     0.35710
C454        C  0.35037349  0.26961291  0.25235068     0.35610
N455        N  0.43086638  0.14837054  0.08874670    -0.44640
N456        N  0.33743963  0.29215993  0.27904763    -0.44630
C457        C  0.06125670  0.95454510  0.65292664    -0.01050
C458        C  0.02649312  0.92478981  0.66661558    -0.12920
C459        C  0.99950869  0.89777911  0.63845031     0.01190
C460        C  0.00728740  0.90094329  0.59590841    -0.01130
C461        C  0.04525664  0.92659660  0.58282429    -0.12860
C462        C  0.07271698  0.95313693  0.61111429     0.01070
H463        H  0.01743306  0.92619886  0.69864318     0.14050
H464        H  0.05083884  0.92928120  0.55005024     0.14060
C465        C  0.10804877  0.98343875  0.59538151     0.35710
C466        C  0.96026365  0.87216762  0.65320449     0.35610
N467        N  0.13624594  0.00778519  0.58270117    -0.44640
N468        N  0.92874932  0.85184660  0.66503716    -0.44630
C469        C  0.90208772  0.02608348  0.39872944    -0.01050
C470        C  0.90631687  0.07466805  0.40464995    -0.12920
C471        C  0.92727577  0.10308383  0.37554461     0.01190
C472        C  0.94543424  0.08249946  0.33995634    -0.01130
C473        C  0.94168097  0.03356057  0.33454890    -0.12860
C474        C  0.92009989  0.00537782  0.36348779     0.01070
H475        H  0.89108534  0.09078397  0.43102383     0.14050
H476        H  0.95600781  0.01717109  0.30791830     0.14060
C477        C  0.91717225  0.95508206  0.35668301     0.35710
C478        C  0.92723871  0.15347996  0.38218365     0.35610
N479        N  0.91491229  0.91475424  0.35145905    -0.44640
N480        N  0.92690747  0.19383004  0.38758761    -0.44630
C481        C  0.75307995  0.62883436  0.53994563    -0.01050
C482        C  0.72542376  0.60382757  0.51036596    -0.12920
C483        C  0.70945227  0.55838194  0.51838818     0.01190
C484        C  0.72011008  0.53684651  0.55740532    -0.01130
C485        C  0.74971145  0.56068930  0.58634453    -0.12860
C486        C  0.76647283  0.60608585  0.57791049     0.01070
H487        H  0.71579607  0.61984870  0.48055853     0.14050
H488        H  0.75876176  0.54448952  0.61618177     0.14060
C489        C  0.79736858  0.62786198  0.60884706     0.35710
C490        C  0.68204282  0.53515742  0.48565870     0.35610
N491        N  0.82251615  0.64467253  0.63376850    -0.44640
N492        N  0.66010193  0.51682751  0.45929676    -0.44630
C493        C  0.64792608  0.12695415  0.55995724    -0.01050
C494        C  0.64862581  0.11584776  0.51781951    -0.12920
C495        C  0.66184499  0.07072003  0.50521346     0.01190
C496        C  0.67440241  0.03569907  0.53524297    -0.01130
C497        C  0.67066849  0.04597749  0.57716575    -0.12860
C498        C  0.65732037  0.09083293  0.58975020     0.01070
H499        H  0.64068123  0.14301874  0.49468321     0.14050
H500        H  0.67967236  0.01913761  0.60037307     0.14060
C501        C  0.65305908  0.09821990  0.63344545     0.35710
C502        C  0.66551973  0.06273652  0.46155768     0.35610
N503        N  0.64947332  0.10392740  0.66845816    -0.44640
N504        N  0.66853726  0.05648917  0.42654766    -0.44630
C505        C  0.79907452  0.85567236  0.77944659    -0.01050
C506        C  0.81058936  0.81362681  0.75984288    -0.12920
C507        C  0.81259516  0.81147614  0.71692438     0.01190
C508        C  0.80253309  0.85218528  0.69225391    -0.01130
C509        C  0.79157900  0.89446085  0.71192919    -0.12860
C510        C  0.79011734  0.89673795  0.75497771     0.01070
H511        H  0.81791894  0.78191770  0.77808275     0.14050
H512        H  0.78448422  0.92619856  0.69368427     0.14060
C513        C  0.77995167  0.94198613  0.77273330     0.35710
C514        C  0.82598081  0.76693380  0.69978863     0.35610
N515        N  0.77193116  0.97836863  0.78677162    -0.44640
N516        N  0.83711596  0.73109417  0.68654877    -0.44630
C517        C  0.80016528  0.86376996  0.19208202    -0.01050
C518        C  0.75922376  0.86150734  0.21328147    -0.12920
C519        C  0.76144046  0.85803416  0.25648621     0.01190
C520        C  0.80517840  0.85664826  0.27878864    -0.01130
C521        C  0.84612982  0.85938105  0.25763435    -0.12860
C522        C  0.84390303  0.86311829  0.21442947     0.01070
H523        H  0.72569109  0.86151462  0.19608425     0.14050
H524        H  0.87966536  0.85910967  0.27483600     0.14060
C525        C  0.88681219  0.86699961  0.19358938     0.35710
C526        C  0.71850427  0.85471486  0.27735860     0.35610
N527        N  0.92105385  0.87038357  0.17674362    -0.44640
N528        N  0.68429251  0.85191288  0.29432234    -0.44630
C529        C  0.99887504  0.92674378  0.07871539    -0.01050
C530        C  0.01744359  0.90143594  0.11351136    -0.12920
C531        C  0.04614320  0.92401969  0.14388051     0.01190
C532        C  0.05793016  0.97168646  0.13843809    -0.01130
C533        C  0.04471857  0.99470629  0.10114142    -0.12860
C534        C  0.01469057  0.97318190  0.07168448     0.01070
H535        H  0.00570662  0.86575801  0.11921624     0.14050
H536        H  0.05394094  0.03154146  0.09696504     0.14060
C537        C  0.99699785  0.00168515  0.03697746     0.35710
C538        C  0.05960624  0.89911640  0.18171073     0.35610
N539        N  0.98250356  0.02544399  0.00993258    -0.44640
N540        N  0.07019732  0.87902393  0.21207254    -0.44630
C541        C  0.88079198  0.02806920  0.89019379    -0.01050
C542        C  0.85974061  0.05844984  0.86001703    -0.12920
C543        C  0.88594700  0.07966070  0.82993852     0.01190
C544        C  0.93391913  0.06991247  0.82931824    -0.01130
C545        C  0.95481385  0.03851178  0.85863340    -0.12860
C546        C  0.92861324  0.01729162  0.88885795     0.01070
H547        H  0.82267467  0.06586310  0.86013023     0.14050
H548        H  0.99185430  0.03115863  0.85828538     0.14060
C549        C  0.95090870  0.98278183  0.91655085     0.35710
C550        C  0.86323709  0.11222417  0.80066757     0.35610
N551        N  0.96864779  0.95470832  0.93842529    -0.44640
N552        N  0.84511243  0.13836736  0.77720015    -0.44630
C553        C  0.73319779  0.53867337  0.06892202    -0.01050
C554        C  0.73391290  0.55107510  0.02704340    -0.12920
C555        C  0.74628482  0.59644582  0.01478216     0.01190
C556        C  0.75796168  0.63113468  0.04495114    -0.01130
C557        C  0.76077634  0.61772393  0.08688423    -0.12860
C558        C  0.74854661  0.57192076  0.09911823     0.01070
H559        H  0.72301402  0.52553922  0.00362996     0.14050
H560        H  0.77063490  0.64359241  0.11028083     0.14060
C561        C  0.74905781  0.56134183  0.14280499     0.35710
C562        C  0.74649441  0.60581867  0.97087410     0.35610
N563        N  0.74952490  0.55296776  0.17785850    -0.44640
N564        N  0.74666581  0.61304189  0.93566123    -0.44630
C565        C  0.64578262  0.13474355  0.05090774    -0.01050
C566        C  0.67566655  0.12630649  0.01933589    -0.12920
C567        C  0.68468855  0.08015005  0.00724506     0.01190
C568        C  0.66303527  0.04193182  0.02673821    -0.01130
C569        C  0.63108837  0.05060747  0.05671966    -0.12860
C570        C  0.62184208  0.09692168  0.06857031     0.01070
H571        H  0.69334817  0.15562863  0.00532471     0.14050
H572        H  0.61473579  0.02123284  0.07185512     0.14060
C573        C  0.58765566  0.10501446  0.09869202     0.35710
C574        C  0.71893610  0.07265990  0.97702271     0.35610
N575        N  0.55997170  0.11179503  0.12249549    -0.44640
N576        N  0.74652395  0.06664944  0.95298480    -0.44630
C577        C  0.39921266  0.40428848  0.01199670    -0.01050
C578        C  0.40973078  0.40223149  0.97035874    -0.12920
C579        C  0.38263710  0.42690438  0.94014838     0.01190
C580        C  0.34368429  0.45300110  0.95155102    -0.01130
C581        C  0.32965334  0.44968988  0.99230090    -0.12860
C582        C  0.35773916  0.42612418  0.02281798     0.01070
H583        H  0.44178412  0.38530857  0.96206124     0.14050
H584        H  0.29992860  0.47004858  0.00133203     0.14060
C585        C  0.34547740  0.42786463  0.06533680     0.35710
C586        C  0.39822953  0.42912412  0.89857481     0.35610
N587        N  0.33565742  0.42913025  0.09944048    -0.44640
N588        N  0.41087924  0.43118335  0.86535434    -0.44630
C589        C  0.46134053  0.57221779  0.77315703    -0.01050
C590        C  0.44315102  0.52942298  0.75796204    -0.12920
C591        C  0.46503118  0.50491152  0.72691819     0.01190
C592        C  0.50586144  0.52319271  0.71079421    -0.01130
C593        C  0.52453853  0.56545122  0.72673703    -0.12860
C594        C  0.50229798  0.59034064  0.75720103     0.01070
H595        H  0.41120985  0.51572284  0.76965610     0.14050
H596        H  0.55678755  0.57892369  0.71546138     0.14060
C597        C  0.52246214  0.63409731  0.77217276     0.35710
C598        C  0.44590656  0.46034512  0.71319782     0.35610
N599        N  0.53860294  0.66911431  0.78429406    -0.44640
N600        N  0.43044386  0.42449403  0.70255060    -0.44630
C601        C  0.48581269  0.77224076  0.91575973    -0.01050
C602        C  0.49829037  0.81975202  0.91850963    -0.12920
C603        C  0.54520597  0.83296864  0.92428979     0.01190
C604        C  0.58095175  0.79790446  0.92685065    -0.01130
C605        C  0.56806630  0.75032093  0.92347738    -0.12860
C606        C  0.52121044  0.73728440  0.91779483     0.01070
H607        H  0.47122707  0.84660688  0.91655387     0.14050
H608        H  0.59468871  0.72305937  0.92471955     0.14060
C609        C  0.51069643  0.68778511  0.91215093     0.35710
C610        C  0.55487711  0.88286873  0.92748513     0.35610
N611        N  0.50231748  0.64816846  0.90746183    -0.44640
N612        N  0.56223561  0.92293955  0.93001887    -0.44630
C613        C  0.06631765  0.71239400  0.90748694    -0.01050
C614        C  0.06270272  0.74012176  0.94247224    -0.12920
C615        C  0.01936813  0.75621752  0.95392615     0.01190
C616        C  0.97773373  0.74303033  0.93081072    -0.01130
C617        C  0.98160201  0.71547382  0.89529097    -0.12860
C618        C  0.02549354  0.70033426  0.88341282     0.01070
H619        H  0.09412587  0.75017652  0.96045716     0.14050
H620        H  0.95040667  0.70491090  0.87731586     0.14060
C621        C  0.02768205  0.67070784  0.84751595     0.35710
C622        C  0.01979472  0.78748058  0.98895958     0.35610
N623        N  0.02949615  0.64676613  0.81885997    -0.44640
N624        N  0.02122411  0.81259449  0.01700786    -0.44630
C625        C  0.17644838  0.47953761  0.78639520    -0.01050
C626        C  0.21403171  0.44789057  0.78516589    -0.12920
C627        C  0.20686358  0.39889284  0.78255879     0.01190
C628        C  0.16099243  0.38048742  0.78156382    -0.01130
C629        C  0.12338926  0.41271922  0.78034945    -0.12860
C630        C  0.13077291  0.46162286  0.78312505     0.01070
H631        H  0.24933752  0.46136841  0.78881233     0.14050
H632        H  0.08789316  0.39972193  0.77922729     0.14060
C633        C  0.09104572  0.49250121  0.78600524     0.35710
C634        C  0.24746485  0.36872522  0.78275805     0.35610
N635        N  0.05925723  0.51727288  0.78850431    -0.44640
N636        N  0.28017027  0.34475314  0.78291174    -0.44630
C637        C  0.23126267  0.87976476  0.82331947    -0.01050
C638        C  0.26747085  0.91191490  0.83388701    -0.12920
C639        C  0.26037627  0.96103951  0.83108781     0.01190
C640        C  0.21628309  0.97913517  0.81795405    -0.01130
C641        C  0.17938662  0.94734457  0.80996030    -0.12860
C642        C  0.18626787  0.89824814  0.81265475     0.01070
H643        H  0.30215057  0.89876384  0.84258812     0.14050
H644        H  0.14553910  0.96097052  0.79890186     0.14060
C645        C  0.14705218  0.86819873  0.80154591     0.35710
C646        C  0.29977122  0.99203890  0.83820050     0.35610
N647        N  0.11545930  0.84435765  0.79252832    -0.44640
N648        N  0.33135022  0.01694711  0.84373056    -0.44630
C649        C  0.30605583  0.66020564  0.56834019    -0.01050
C650        C  0.30781150  0.70367293  0.58860744    -0.12920
C651        C  0.30144556  0.70609931  0.63108276     0.01190
C652        C  0.29307711  0.66449939  0.65376477    -0.01130
C653        C  0.29170195  0.62094703  0.63356340    -0.12860
C654        C  0.29833672  0.61850327  0.59110060     0.01070
H655        H  0.31286179  0.73581679  0.57104175     0.14050
H656        H  0.28626082  0.58883790  0.65107996     0.14060
C657        C  0.29815737  0.57279456  0.57160038     0.35710
C658        C  0.30176643  0.75184238  0.65050901     0.35610
N659        N  0.29838971  0.53620228  0.55595013    -0.44640
N660        N  0.30173948  0.78842567  0.66618291    -0.44630
C661        C  0.29151096  0.66653855  0.06650284    -0.01050
C662        C  0.33390988  0.66060244  0.09004065    -0.12920
C663        C  0.33584698  0.66169233  0.13342696     0.01190
C664        C  0.29467337  0.66912230  0.15432394    -0.01130
C665        C  0.25239529  0.67544436  0.13083140    -0.12860
C666        C  0.25046449  0.67460109  0.08749508     0.01070
H667        H  0.36570891  0.65392056  0.07455407     0.14050
H668        H  0.22060738  0.68200352  0.14638434     0.14060
C669        C  0.20600552  0.68361411  0.06561785     0.35710
C670        C  0.38025550  0.65307704  0.15554862     0.35610
N671        N  0.17030181  0.69106099  0.04828632    -0.44640
N672        N  0.41589697  0.64598421  0.17311138    -0.44630
C673        C  0.39678161  0.39442750  0.50777073    -0.01050
C674        C  0.41544378  0.39821769  0.46891046    -0.12920
C675        C  0.39486004  0.42793612  0.43853397     0.01190
C676        C  0.35365153  0.45248258  0.44638994    -0.01130
C677        C  0.33115597  0.44261883  0.48288770    -0.12860
C678        C  0.35312554  0.41454443  0.51411838     0.01070
H679        H  0.44929928  0.38267729  0.46414851     0.14050
H680        H  0.29928169  0.46115247  0.48912191     0.14060
C681        C  0.33256594  0.41027787  0.55353284     0.35710
C682        C  0.41953298  0.43644579  0.40170041     0.35610
N683        N  0.31605262  0.40675355  0.58512116    -0.44640
N684        N  0.44019294  0.44318640  0.37268137    -0.44630
C685        C  0.51206477  0.52867049  0.20714023    -0.01050
C686        C  0.47887135  0.50613094  0.23032143    -0.12920
C687        C  0.45661812  0.53056911  0.26099934     0.01190
C688        C  0.46828272  0.57804687  0.26898610    -0.01130
C689        C  0.50057814  0.60084800  0.24486535    -0.12860
C690        C  0.52272054  0.57642844  0.21422712     0.01070
H691        H  0.47073986  0.46930772  0.22468183     0.14050
H692        H  0.50852835  0.63780724  0.25004579     0.14060
C693        C  0.55663245  0.60074431  0.19076414     0.35710
C694        C  0.41999423  0.50727566  0.28188927     0.35610
N695        N  0.58373889  0.62014423  0.17183294    -0.44640
N696        N  0.39011722  0.48890030  0.29817397    -0.44630
C697        C  0.49876991  0.78168815  0.41394346    -0.01050
C698        C  0.52154906  0.77817475  0.45354496    -0.12920
C699        C  0.56945057  0.78701702  0.45966105     0.01190
C700        C  0.59537797  0.79950676  0.42577984    -0.01130
C701        C  0.57290960  0.80391246  0.38643317    -0.12860
C702        C  0.52518328  0.79473063  0.38004970     0.01070
H703        H  0.50198553  0.76770593  0.47973628     0.14050
H704        H  0.59303314  0.81373513  0.36037629     0.14060
C705        C  0.50548527  0.79599121  0.33797114     0.35710
C706        C  0.59131189  0.78327072  0.50087695     0.35610
N707        N  0.49011290  0.79671075  0.30410884    -0.44640
N708        N  0.60890630  0.78037978  0.53389534    -0.44630
C709        C  0.98734784  0.73348379  0.43205133    -0.01050
C710        C  0.01800345  0.71165192  0.46188608    -0.12920
C711        C  0.06445583  0.70240666  0.45422385     0.01190
C712        C  0.08131986  0.71453884  0.41547782    -0.01130
C713        C  0.05063633  0.73676558  0.38563561    -0.12860
C714        C  0.00411344  0.74647412  0.39364410     0.01070
H715        H  0.00572419  0.70225207  0.49190719     0.14050
H716        H  0.06296041  0.74686973  0.35583758     0.14060
C717        C  0.97535159  0.77213075  0.36298385     0.35710
C718        C  0.09382806  0.68151809  0.48728627     0.35610
N719        N  0.95247467  0.79301323  0.33847781    -0.44640
N720        N  0.11715446  0.66491907  0.51398109    -0.44630
C721        C  0.17780799  0.38385637  0.28173414    -0.01050
C722        C  0.14947802  0.41801564  0.26038460    -0.12920
C723        C  0.15899790  0.46671136  0.26424370     0.01190
C724        C  0.19704393  0.48180450  0.29018700    -0.01130
C725        C  0.22699656  0.44750225  0.30905485    -0.12860
C726        C  0.21772019  0.39923397  0.30540635     0.01070
H727        H  0.11903669  0.40676417  0.24172332     0.14050
H728        H  0.25637796  0.45862171  0.32922620     0.14060
C729        C  0.24729030  0.36697073  0.32989540     0.35710
C730        C  0.12773085  0.50041514  0.24359341     0.35610
N731        N  0.27081329  0.34136398  0.34990151    -0.44640
N732        N  0.10283771  0.52755343  0.22688548    -0.44630
C733        C  0.23922793  0.88257428  0.32395697    -0.01050
C734        C  0.26249088  0.91623475  0.34957869    -0.12920
C735        C  0.25230688  0.96496313  0.34510287     0.01190
C736        C  0.21874722  0.98035395  0.31435473    -0.01130
C737        C  0.19395312  0.94610114  0.29064789    -0.12860
C738        C  0.20440149  0.89812316  0.29452945     0.01070
H739        H  0.28931786  0.90459206  0.37233931     0.14050
H740        H  0.16799122  0.95706752  0.26678786     0.14060
C741        C  0.18260990  0.86629121  0.26455950     0.35710
C742        C  0.27820912  0.99836789  0.37069474     0.35610
N743        N  0.16613252  0.84050574  0.24033176    -0.44640
N744        N  0.29879126  0.02522530  0.39136337    -0.44630
loop_ 
_geom_bond_atom_site_label_1 
_geom_bond_atom_site_label_2 
_geom_bond_distance 
_geom_bond_site_symmetry_2 
_ccdc_geom_bond_type 
N1            N2   1.321       .  A
N1            N7   1.319       .  A
N1          Mn30   2.239       .  S
N2            C9   1.357       .  A
N3            N5   1.312       .  A
N3            N4   1.321       .  A
N3          Mn19   2.204       .  S
N4           C10   1.353       .  A
N5            N6   1.321       .  A
N5          Mn30   2.189       .  S
N6           C10   1.354       .  A
N7            N8   1.323       .  A
N7          Mn19   2.199       .  S
N8            C9   1.353       .  A
C9          C733   1.486       .  S
C10         C664   1.487       .  S
N11          N17   1.317       .  A
N11          N12   1.325       .  A
N11         Mn41   2.233       .  S
N12          C20   1.359       .  A
N13          N14   1.322       .  A
N13          N15   1.317       .  A
N13         Mn19   2.200       .  S
N14          C21   1.352       .  A
N15          N16   1.320       .  A
N15         Mn41   2.193       .  S
N16          C21   1.349       .  A
N17          N18   1.313       .  A
N17         Mn19   2.165       .  S
N18          C20   1.343       .  A
Mn19        Cl43   2.542       .  S
C20         C688   1.468       .  S
C21         C697   1.486       .  S
N22          N23   1.334       .  A
N22          N28   1.317       .  A
N22         Mn30   2.262       .  S
N23          C31   1.367       .  A
N24          N26   1.313       .  A
N24          N25   1.321       .  A
N24         Mn42   2.196       .  S
N25          C32   1.356       .  A
N26          N27   1.318       .  A
N26         Mn30   2.185       .  S
N27          C32   1.350       .  A
N28          N29   1.309       .  A
N28         Mn42   2.160       .  S
N29          C31   1.340       .  A
Mn30        Cl43   2.544       .  S
C31         C724   1.487       .  S
C32         C712   1.488       .  S
N33          N34   1.325       .  A
N33          N39   1.320       .  A
N33         Mn41   2.239       .  S
N34          C44   1.357       .  A
N35          N36   1.320       .  A
N35          N37   1.312       .  A
N35         Mn42   2.184       .  S
N36          C45   1.351       .  A
N37          N38   1.317       .  A
N37         Mn41   2.184       .  S
N38          C45   1.352       .  A
N39          N40   1.317       .  A
N39         Mn42   2.184       .  S
N40          C44   1.347       .  A
Mn41        Cl43   2.533       .  S
Mn42        Cl43   2.540       .  S
C44         C649   1.472       .  S
C45         C676   1.470       .  S
N46          N47   1.322       .  A
N46          N52   1.319       .  A
N46         Mn75   2.231       .  S
N47          C54   1.356   1_556  A
N48          N50   1.312       .  A
N48          N49   1.323       .  A
N48         Mn64   2.198       .  S
N49          C55   1.354       .  A
N50          N51   1.314       .  A
N50         Mn75   2.165       .  S
N51          C55   1.347       .  A
N52          N53   1.320       .  A
N52         Mn64   2.201       .  S
N53          C54   1.354   1_556  A
C54         C661   1.491       .  S
C55         C580   1.467       .  S
N56          N62   1.320       .  A
N56          N57   1.330       .  A
N56         Mn86   2.257       .  S
N57          C65   1.363       .  A
N58          N59   1.323       .  A
N58          N60   1.316       .  A
N58         Mn64   2.211       .  S
N59          C66   1.355       .  A
N60          N61   1.319       .  A
N60         Mn86   2.191       .  S
N61          C66   1.348       .  A
N62          N63   1.313       .  A
N62         Mn64   2.178       .  S
N63          C65   1.342       .  A
Mn64        Cl88   2.550       .  S
C65         C625   1.478       .  S
C66         C613   1.475       .  S
N67          N68   1.327       .  A
N67          N73   1.316       .  A
N67         Mn75   2.236       .  S
N68          C76   1.360       .  A
N69          N71   1.316       .  A
N69          N70   1.324       .  A
N69         Mn87   2.202       .  S
N70          C77   1.354       .  A
N71          N72   1.316       .  A
N71         Mn75   2.177       .  S
N72          C77   1.345       .  A
N73          N74   1.316       .  A
N73         Mn87   2.175       .  S
N74          C76   1.345       .  A
Mn75        Cl88   2.524       .  S
C76         C589   1.475       .  S
C77         C601   1.477       .  S
N78          N79   1.326       .  A
N78          N84   1.320       .  A
N78         Mn86   2.256       .  S
N79          C89   1.361       .  A
N80          N81   1.317       .  A
N80          N82   1.313       .  A
N80         Mn87   2.181       .  S
N81          C90   1.346       .  A
N82          N83   1.325       .  A
N82         Mn86   2.205       .  S
N83          C90   1.356       .  A
N84          N85   1.319       .  A
N84         Mn87   2.200       .  S
N85          C89   1.353       .  A
Mn86        Cl88   2.543       .  S
Mn87        Cl88   2.550       .  S
C89         C637   1.500       .  S
C90         C652   1.473       .  S
N91          N92   1.331       .  A
N91          N97   1.317       .  A
N91        Mn120   2.258       .  S
N92          C99   1.366       .  A
N93          N95   1.316   1_554  A
N93          N94   1.325       .  A
N93        Mn109   2.209       .  S
N94         C100   1.356       .  A
N95          N96   1.315       .  A
N95        Mn120   2.186       .  S
N96         C100   1.348   1_556  A
N97          N98   1.311       .  A
N97        Mn109   2.163   1_556  S
N98          C99   1.343       .  A
C99         C616   1.492       .  S
C100        C556   1.486       .  S
N101        N107   1.319       .  A
N101        N102   1.323       .  A
N101       Mn131   2.226       .  S
N102        C110   1.354       .  A
N103        N104   1.323       .  A
N103        N105   1.312       .  A
N103       Mn109   2.207       .  S
N104        C111   1.356       .  A
N105        N106   1.314       .  A
N105       Mn131   2.162       .  S
N106        C111   1.348       .  A
N107        N108   1.317       .  A
N107       Mn109   2.184       .  S
N108        C110   1.348       .  A
Mn109      Cl133   2.547   1_554  S
C110        C517   1.467       .  S
C111        C529   1.477       .  S
N112        N113   1.326       .  A
N112        N118   1.317       .  A
N112       Mn120   2.251       .  S
N113        C121   1.363       .  A
N114        N116   1.312       .  A
N114        N115   1.317       .  A
N114       Mn132   2.179       .  S
N115        C122   1.349       .  A
N116        N117   1.320       .  A
N116       Mn120   2.191       .  S
N117        C122   1.356       .  A
N118        N119   1.314       .  A
N118       Mn132   2.167       .  S
N119        C121   1.346       .  A
Mn120      Cl133   2.539       .  S
C121        C604   1.491       .  S
C122        C505   1.483       .  S
N123        N124   1.326       .  A
N123        N129   1.314       .  A
N123       Mn131   2.238   1_556  S
N124        C134   1.361   1_565  A
N125        N126   1.321       .  A
N125        N127   1.313   1_556  A
N125       Mn132   2.189       .  S
N126        C135   1.353   1_556  A
N127        N128   1.315       .  A
N127       Mn131   2.179       .  S
N128        C135   1.346       .  A
N129        N130   1.314       .  A
N129       Mn132   2.156       .  S
N130        C134   1.343   1_565  A
Mn131      Cl133   2.520   1_554  S
Mn132      Cl133   2.547       .  S
C134        C541   1.475       .  S
C135        C568   1.461   1_565  S
N136        N137   1.328       .  A
N136        N142   1.317       .  A
N136       Mn165   2.243       .  S
N137        C144   1.363       .  A
N138        N140   1.314       .  A
N138        N139   1.323       .  A
N138       Mn154   2.196       .  S
N139        C145   1.355       .  A
N140        N141   1.316       .  A
N140       Mn165   2.192       .  S
N141        C145   1.351       .  A
N142        N143   1.311       .  A
N142       Mn154   2.163       .  S
N143        C144   1.343       .  A
C144        C709   1.480       .  S
C145        C481   1.489       .  S
N146        N152   1.317       .  A
N146        N147   1.321       .  A
N146       Mn176   2.218       .  S
N147        C155   1.356       .  A
N148        N149   1.320       .  A
N148        N150   1.313       .  A
N148       Mn154   2.184       .  S
N149        C156   1.349       .  A
N150        N151   1.316       .  A
N150       Mn176   2.183       .  S
N151        C156   1.350       .  A
N152        N153   1.317       .  A
N152       Mn154   2.187       .  S
N153        C155   1.351       .  A
Mn154      Cl178   2.540       .  S
C155        C508   1.486       .  S
C156        C460   1.461   1_655  S
N157        N158   1.323       .  A
N157        N163   1.319       .  A
N157       Mn165   2.233       .  S
N158        C166   1.356       .  A
N159        N161   1.313       .  A
N159        N160   1.317       .  A
N159       Mn177   2.178       .  S
N160        C167   1.347       .  A
N161        N162   1.322       .  A
N161       Mn165   2.199       .  S
N162        C167   1.354       .  A
N163        N164   1.318       .  A
N163       Mn177   2.185       .  S
N164        C166   1.348       .  A
Mn165      Cl178   2.541       .  S
C166        C700   1.469       .  S
C167        C520   1.467       .  S
N168        N169   1.326       .  A
N168        N174   1.316       .  A
N168       Mn176   2.231       .  S
N169        C179   1.359       .  A
N170        N171   1.323       .  A
N170        N172   1.314       .  A
N170       Mn177   2.197       .  S
N171        C180   1.354       .  A
N172        N173   1.316       .  A
N172       Mn176   2.185       .  S
N173        C180   1.349       .  A
N174        N175   1.313       .  A
N174       Mn177   2.163       .  S
N175        C179   1.343       .  A
Mn176      Cl178   2.533       .  S
Mn177      Cl178   2.540       .  S
C179        C469   1.469   1_565  S
C180        C496   1.478   1_565  S
N181        N182   1.324       .  A
N181        N187   1.317       .  A
N181       Mn210   2.221       .  S
N182        C189   1.356       .  A
N183        N185   1.316       .  A
N183        N184   1.323       .  A
N183       Mn199   2.202       .  S
N184        C190   1.354       .  A
N185        N186   1.316       .  A
N185       Mn210   2.191       .  S
N186        C190   1.349       .  A
N187        N188   1.314       .  A
N187       Mn199   2.170       .  S
N188        C189   1.344       .  A
C189        C685   1.461       .  S
C190        C553   1.480       .  S
N191        N197   1.318       .  A
N191        N192   1.322       .  A
N191       Mn221   2.232       .  S
N192        C200   1.358       .  A
N193        N194   1.320       .  A
N193        N195   1.314       .  A
N193       Mn199   2.198       .  S
N194        C201   1.350       .  A
N195        N196   1.323       .  A
N195       Mn221   2.205       .  S
N196        C201   1.354       .  A
N197        N198   1.320       .  A
N197       Mn199   2.196       .  S
N198        C200   1.352       .  A
Mn199      Cl223   2.539       .  S
C200        C433   1.490       .  S
C201        C421   1.477       .  S
N202        N203   1.324   1_554  A
N202        N208   1.316       .  A
N202       Mn210   2.226       .  S
N203        C211   1.359       .  A
N204        N206   1.313       .  A
N204        N205   1.320       .  A
N204       Mn222   2.182       .  S
N205        C212   1.349       .  A
N206        N207   1.318       .  A
N206       Mn210   2.193       .  S
N207        C212   1.352       .  A
N208        N209   1.316   1_554  A
N208       Mn222   2.181       .  S
N209        C211   1.349       .  A
Mn210      Cl223   2.543       .  S
C211        C412   1.482       .  S
C212        C577   1.465       .  S
N213        N214   1.327       .  A
N213        N219   1.317       .  A
N213       Mn221   2.236       .  S
N214        C224   1.360       .  A
N215        N216   1.317       .  A
N215        N217   1.315       .  A
N215       Mn222   2.168       .  S
N216        C225   1.345       .  A
N217        N218   1.320       .  A
N217       Mn221   2.204       .  S
N218        C225   1.352       .  A
N219        N220   1.313       .  A
N219       Mn222   2.170       .  S
N220        C224   1.343       .  A
Mn221      Cl223   2.554       .  S
Mn222      Cl223   2.529       .  S
C224        C445   1.473       .  S
C225        C565   1.461       .  S
N226        N227   1.320       .  A
N226        N232   1.312       .  A
N226       Mn255   2.185       .  S
N227        C234   1.350       .  A
N228        N230   1.318       .  A
N228        N229   1.324       .  A
N228       Mn244   2.234       .  S
N229        C235   1.356       .  A
N230        N231   1.320       .  A
N230       Mn255   2.196       .  S
N231        C235   1.351       .  A
N232        N233   1.316       .  A
N232       Mn244   2.181       .  S
N233        C234   1.351       .  A
C234        C673   1.461       .  S
C235        C424   1.479       .  S
N236        N242   1.314       .  A
N236        N237   1.325       .  A
N236       Mn266   2.206       .  S
N237        C245   1.358       .  A
N238        N239   1.327       .  A
N238        N240   1.317       .  A
N238       Mn244   2.240       .  S
N239        C246   1.361       .  A
N240        N241   1.316       .  A
N240       Mn266   2.177       .  S
N241        C246   1.344       .  A
N242        N243   1.314       .  A
N242       Mn244   2.183       .  S
N243        C245   1.347       .  A
Mn244      Cl268   2.528       .  S
C245        C484   1.487       .  S
C246        C592   1.476       .  S
N247        N248   1.322       .  A
N247        N253   1.315       .  A
N247       Mn255   2.190       .  S
N248        C256   1.353       .  A
N249        N251   1.317       .  A
N249        N250   1.329       .  A
N249       Mn267   2.247       .  S
N250        C257   1.362       .  A
N251        N252   1.312       .  A
N251       Mn255   2.168       .  S
N252        C257   1.342       .  A
N253        N254   1.318       .  A
N253       Mn267   2.198       .  S
N254        C256   1.351       .  A
Mn255      Cl268   2.543       .  S
C256        C493   1.482       .  S
C257        C397   1.476       .  S
N258        N259   1.318       .  A
N258        N264   1.314       .  A
N258       Mn266   2.185       .  S
N259        C269   1.349       .  A
N260        N261   1.320       .  A
N260        N262   1.319       .  A
N260       Mn267   2.228       .  S
N261        C270   1.355       .  A
N262        N263   1.323       .  A
N262       Mn266   2.208       .  S
N263        C270   1.355       .  A
N264        N265   1.322       .  A
N264       Mn267   2.203       .  S
N265        C269   1.356       .  A
Mn266      Cl268   2.551       .  S
Mn267      Cl268   2.542       .  S
C269        C409   1.480       .  S
C270        C388   1.495       .  S
N271        N272   1.336       .  A
N271        N277   1.318       .  A
N271       Mn300   2.272       .  S
N272        C279   1.370       .  A
N273        N275   1.313       .  A
N273        N274   1.323       .  A
N273       Mn289   2.198       .  S
N274        C280   1.357       .  A
N275        N276   1.317       .  A
N275       Mn300   2.187       .  S
N276        C280   1.349       .  A
N277        N278   1.307       .  A
N277       Mn289   2.155       .  S
N278        C279   1.339       .  A
C279        C736   1.490   1_545  S
C280        C448   1.489       .  S
N281        N287   1.318       .  A
N281        N282   1.323       .  A
N281       Mn311   2.234       .  S
N282        C290   1.356       .  A
N283        N284   1.323       .  A
N283        N285   1.313       .  A
N283       Mn289   2.201       .  S
N284        C291   1.352       .  A
N285        N286   1.316       .  A
N285       Mn311   2.175       .  S
N286        C291   1.349       .  A
N287        N288   1.317       .  A
N287       Mn289   2.180       .  S
N288        C290   1.350       .  A
Mn289      Cl313   2.544       .  S
C290        C376   1.476       .  S
C291        C532   1.467   1_545  S
N292        N293   1.322       .  A
N292        N298   1.321       .  A
N292       Mn300   2.243       .  S
N293        C301   1.357       .  A
N294        N296   1.314       .  A
N294        N295   1.320       .  A
N294       Mn312   2.198       .  S
N295        C302   1.350       .  A
N296        N297   1.322       .  A
N296       Mn300   2.193       .  S
N297        C302   1.355       .  A
N298        N299   1.322       .  A
N298       Mn312   2.207       .  S
N299        C301   1.354       .  A
Mn300      Cl313   2.539       .  S
C301        C721   1.492       .  S
C302        C361   1.479       .  S
N303        N304   1.327   1_455  A
N303        N309   1.315       .  A
N303       Mn311   2.243       .  S
N304        C314   1.363       .  A
N305        N306   1.327   1_455  A
N305        N307   1.316       .  A
N305       Mn312   2.216       .  S
N306        C315   1.358       .  A
N307        N308   1.315   1_455  A
N307       Mn311   2.179       .  S
N308        C315   1.345       .  A
N309        N310   1.312   1_455  A
N309       Mn312   2.161       .  S
N310        C314   1.343       .  A
Mn311      Cl313   2.522       .  S
Mn312      Cl313   2.549       .  S
C314        C472   1.484       .  S
C315        C436   1.489       .  S
N316        N317   1.332       .  A
N316        N322   1.318       .  A
N316       Mn345   2.265       .  S
N317        C324   1.365       .  A
N318        N320   1.315       .  A
N318        N319   1.323       .  A
N318       Mn334   2.201       .  S
N319        C325   1.354       .  A
N320        N321   1.320       .  A
N320       Mn345   2.193       .  S
N321        C325   1.348       .  A
N322        N323   1.312       .  A
N322       Mn334   2.166       .  S
N323        C324   1.341       .  A
C324        C640   1.482   1_545  S
C325        C400   1.473       .  S
N326        N332   1.320       .  A
N326        N327   1.323       .  A
N326       Mn356   2.233       .  S
N327        C335   1.356       .  A
N328        N329   1.320       .  A
N328        N330   1.312       .  A
N328       Mn334   2.184       .  S
N329        C336   1.350   1_545  A
N330        N331   1.316       .  A
N330       Mn356   2.178       .  S
N331        C336   1.350   1_545  A
N332        N333   1.319       .  A
N332       Mn334   2.196       .  S
N333        C335   1.351       .  A
Mn334      Cl358   2.544       .  S
C335        C364   1.482       .  S
C336        C457   1.465       .  S
N337        N338   1.324       .  A
N337        N343   1.319       .  A
N337       Mn345   2.243       .  S
N338        C346   1.359       .  A
N339        N341   1.313       .  A
N339        N340   1.319       .  A
N339       Mn357   2.192       .  S
N340        C347   1.350       .  A
N341        N342   1.322       .  A
N341       Mn345   2.193       .  S
N342        C347   1.354       .  A
N343        N344   1.320       .  A
N343       Mn357   2.205       .  S
N344        C346   1.354       .  A
Mn345      Cl358   2.549       .  S
C346        C628   1.499       .  S
C347        C373   1.475       .  S
N348        N349   1.326   1_455  A
N348        N354   1.317       .  A
N348       Mn356   2.236       .  S
N349        C359   1.358       .  A
N350        N351   1.325   1_455  A
N350        N352   1.316       .  A
N350       Mn357   2.214       .  S
N351        C360   1.355       .  A
N352        N353   1.319   1_455  A
N352       Mn356   2.191       .  S
N353        C360   1.348       .  A
N354        N355   1.315   1_455  A
N354       Mn357   2.175       .  S
N355        C359   1.345       .  A
Mn356      Cl358   2.537       .  S
Mn357      Cl358   2.542       .  S
C359        C544   1.470       .  S
C360        C385   1.479       .  S
C361        C362   1.404       .  A
C361        C366   1.411       .  A
C362        C363   1.403       .  A
C362        H367   1.084       .  S
C363        C364   1.414       .  A
C363        C370   1.444       .  S
C364        C365   1.404       .  A
C365        C366   1.401       .  A
C365        H368   1.084       .  S
C366        C369   1.444       .  S
C369        N371   1.157       .  T
C370        N372   1.157   1_455  T
C373        C374   1.402       .  A
C373        C378   1.411       .  A
C374        C375   1.400   1_556  A
C374        H379   1.085       .  S
C375        C376   1.412       .  A
C375        C382   1.444       .  S
C376        C377   1.403       .  A
C377        C378   1.401   1_554  A
C377        H380   1.086       .  S
C378        C381   1.442       .  S
C381        N383   1.156       .  T
C382        N384   1.157       .  T
C385        C386   1.402       .  A
C385        C390   1.406       .  A
C386        C387   1.399       .  A
C386        H391   1.085       .  S
C387        C388   1.417       .  A
C387        C394   1.444       .  S
C388        C389   1.412       .  A
C389        C390   1.408       .  A
C389        H392   1.084       .  S
C390        C393   1.443       .  S
C393        N395   1.157       .  T
C394        N396   1.158       .  T
C397        C398   1.402       .  A
C397        C402   1.415       .  A
C398        C399   1.406       .  A
C398        H403   1.084       .  S
C399        C400   1.413       .  A
C399        C406   1.444       .  S
C400        C401   1.397       .  A
C401        C402   1.399       .  A
C401        H404   1.085       .  S
C402        C405   1.444       .  S
C405        N407   1.157       .  T
C406        N408   1.157       .  T
C409        C410   1.401       .  A
C409        C414   1.414       .  A
C410        C411   1.399       .  A
C410        H415   1.085       .  S
C411        C412   1.415       .  A
C411        C418   1.445       .  S
C412        C413   1.404       .  A
C413        C414   1.402       .  A
C413        H416   1.085       .  S
C414        C417   1.445       .  S
C417        N419   1.157       .  T
C418        N420   1.157       .  T
C421        C422   1.402       .  A
C421        C426   1.409       .  A
C422        C423   1.403       .  A
C422        H427   1.086       .  S
C423        C424   1.411       .  A
C423        C430   1.444       .  S
C424        C425   1.404       .  A
C425        C426   1.403       .  A
C425        H428   1.086       .  S
C426        C429   1.442       .  S
C429        N431   1.156       .  T
C430        N432   1.157       .  T
C433        C434   1.411       .  A
C433        C438   1.412       .  A
C434        C435   1.407       .  A
C434        H439   1.084       .  S
C435        C436   1.408       .  A
C435        C442   1.443       .  S
C436        C437   1.409       .  A
C437        C438   1.398       .  A
C437        H440   1.085       .  S
C438        C441   1.445       .  S
C441        N443   1.158       .  T
C442        N444   1.157       .  T
C445        C446   1.399       .  A
C445        C450   1.411       .  A
C446        C447   1.403       .  A
C446        H451   1.084       .  S
C447        C448   1.420       .  A
C447        C454   1.444       .  S
C448        C449   1.405       .  A
C449        C450   1.399       .  A
C449        H452   1.084       .  S
C450        C453   1.445       .  S
C453        N455   1.157       .  T
C454        N456   1.157       .  T
C457        C458   1.399       .  A
C457        C462   1.414       .  A
C458        C459   1.396   1_455  A
C458        H463   1.086       .  S
C459        C460   1.411   1_655  A
C459        C466   1.446       .  S
C460        C461   1.398       .  A
C461        C462   1.398       .  A
C461        H464   1.085       .  S
C462        C465   1.445       .  S
C465        N467   1.157   1_565  T
C466        N468   1.157       .  T
C469        C470   1.395       .  A
C469        C474   1.412       .  A
C470        C471   1.399       .  A
C470        H475   1.086       .  S
C471        C472   1.422       .  A
C471        C478   1.445       .  S
C472        C473   1.402       .  A
C473        C474   1.401       .  A
C473        H476   1.085       .  S
C474        C477   1.445   1_545  S
C477        N479   1.157       .  T
C478        N480   1.157       .  T
C481        C482   1.405       .  A
C481        C486   1.416       .  A
C482        C483   1.395       .  A
C482        H487   1.084       .  S
C483        C484   1.415       .  A
C483        C490   1.446       .  S
C484        C485   1.405       .  A
C485        C486   1.405       .  A
C485        H488   1.084       .  S
C486        C489   1.441       .  S
C489        N491   1.157       .  T
C490        N492   1.157       .  T
C493        C494   1.404       .  A
C493        C498   1.415       .  A
C494        C495   1.403       .  A
C494        H499   1.084       .  S
C495        C496   1.414       .  A
C495        C502   1.444       .  S
C496        C497   1.401       .  A
C497        C498   1.397       .  A
C497        H500   1.085       .  S
C498        C501   1.445       .  S
C501        N503   1.157       .  T
C502        N504   1.157       .  T
C505        C506   1.402       .  A
C505        C510   1.416       .  A
C506        C507   1.397       .  A
C506        H511   1.084       .  S
C507        C508   1.417       .  A
C507        C514   1.443       .  S
C508        C509   1.404       .  A
C509        C510   1.399       .  A
C509        H512   1.084       .  S
C510        C513   1.445       .  S
C513        N515   1.158       .  T
C514        N516   1.157       .  T
C517        C518   1.399       .  A
C517        C522   1.412       .  A
C518        C519   1.400       .  A
C518        H523   1.084       .  S
C519        C520   1.412       .  A
C519        C526   1.445       .  S
C520        C521   1.399       .  A
C521        C522   1.400       .  A
C521        H524   1.084       .  S
C522        C525   1.445       .  S
C525        N527   1.157       .  T
C526        N528   1.157       .  T
C529        C530   1.408   1_655  A
C529        C534   1.414   1_655  A
C530        C531   1.404       .  A
C530        H535   1.084       .  S
C531        C532   1.405       .  A
C531        C538   1.441       .  S
C532        C533   1.400       .  A
C533        C534   1.393       .  A
C533        H536   1.086   1_565  S
C534        C537   1.445   1_465  S
C537        N539   1.157       .  T
C538        N540   1.157       .  T
C541        C542   1.405       .  A
C541        C546   1.410       .  A
C542        C543   1.400       .  A
C542        H547   1.085       .  S
C543        C544   1.406       .  A
C543        C550   1.443       .  S
C544        C545   1.403       .  A
C545        C546   1.403       .  A
C545        H548   1.085       .  S
C546        C549   1.444   1_545  S
C549        N551   1.157       .  T
C550        N552   1.157       .  T
C553        C554   1.400       .  A
C553        C558   1.415       .  A
C554        C555   1.395       .  A
C554        H559   1.085       .  S
C555        C556   1.418       .  A
C555        C562   1.445   1_554  S
C556        C557   1.405       .  A
C557        C558   1.405       .  A
C557        H560   1.084       .  S
C558        C561   1.443       .  S
C561        N563   1.157       .  T
C562        N564   1.157       .  T
C565        C566   1.396       .  A
C565        C570   1.411       .  A
C566        C567   1.396       .  A
C566        H571   1.085       .  S
C567        C568   1.413       .  A
C567        C574   1.446   1_554  S
C568        C569   1.399       .  A
C569        C570   1.399       .  A
C569        H572   1.085       .  S
C570        C573   1.445       .  S
C573        N575   1.157       .  T
C574        N576   1.157       .  T
C577        C578   1.401   1_554  A
C577        C582   1.405       .  A
C578        C579   1.395       .  A
C578        H583   1.086       .  S
C579        C580   1.409       .  A
C579        C586   1.446       .  S
C580        C581   1.406       .  A
C581        C582   1.402   1_556  A
C581        H584   1.085   1_556  S
C582        C585   1.443       .  S
C585        N587   1.157       .  T
C586        N588   1.157       .  T
C589        C590   1.402       .  A
C589        C594   1.410       .  A
C590        C591   1.405       .  A
C590        H595   1.085       .  S
C591        C592   1.411       .  A
C591        C598   1.441       .  S
C592        C593   1.402       .  A
C593        C594   1.401       .  A
C593        H596   1.086       .  S
C594        C597   1.444       .  S
C597        N599   1.157       .  T
C598        N600   1.156       .  T
C601        C602   1.396       .  A
C601        C606   1.416       .  A
C602        C603   1.402       .  A
C602        H607   1.085       .  S
C603        C604   1.425       .  A
C603        C610   1.444       .  S
C604        C605   1.402       .  A
C605        C606   1.399       .  A
C605        H608   1.084       .  S
C606        C609   1.446       .  S
C609        N611   1.157       .  T
C610        N612   1.158       .  T
C613        C614   1.392       .  A
C613        C618   1.413       .  A
C614        C615   1.397       .  A
C614        H619   1.085       .  S
C615        C616   1.425   1_455  A
C615        C622   1.444       .  S
C616        C617   1.405       .  A
C617        C618   1.407   1_655  A
C617        H620   1.083       .  S
C618        C621   1.443       .  S
C621        N623   1.157       .  T
C622        N624   1.157   1_556  T
C625        C626   1.404       .  A
C625        C630   1.407       .  A
C626        C627   1.406       .  A
C626        H631   1.085       .  S
C627        C628   1.417       .  A
C627        C634   1.444       .  S
C628        C629   1.411       .  A
C629        C630   1.404       .  A
C629        H632   1.084       .  S
C630        C633   1.444       .  S
C633        N635   1.157       .  T
C634        N636   1.158       .  T
C637        C638   1.413       .  A
C637        C642   1.416       .  A
C638        C639   1.407       .  A
C638        H643   1.083       .  S
C639        C640   1.406       .  A
C639        C646   1.443       .  S
C640        C641   1.406       .  A
C641        C642   1.405       .  A
C641        H644   1.085       .  S
C642        C645   1.444       .  S
C645        N647   1.158       .  T
C646        N648   1.157   1_565  T
C649        C650   1.399       .  A
C649        C654   1.413       .  A
C650        C651   1.401       .  A
C650        H655   1.085       .  S
C651        C652   1.412       .  A
C651        C658   1.444       .  S
C652        C653   1.400       .  A
C653        C654   1.402       .  A
C653        H656   1.085       .  S
C654        C657   1.445       .  S
C657        N659   1.157       .  T
C658        N660   1.157       .  T
C661        C662   1.407       .  A
C661        C666   1.415       .  A
C662        C663   1.404       .  A
C662        H667   1.085       .  S
C663        C664   1.414       .  A
C663        C670   1.445       .  S
C664        C665   1.404       .  A
C665        C666   1.402       .  A
C665        H668   1.086       .  S
C666        C669   1.444       .  S
C669        N671   1.157       .  T
C670        N672   1.157       .  T
C673        C674   1.401       .  A
C673        C678   1.403       .  A
C674        C675   1.393       .  A
C674        H679   1.087       .  S
C675        C676   1.409       .  A
C675        C682   1.443       .  S
C676        C677   1.408       .  A
C677        C678   1.401       .  A
C677        H680   1.085       .  S
C678        C681   1.443       .  S
C681        N683   1.157       .  T
C682        N684   1.157       .  T
C685        C686   1.401       .  A
C685        C690   1.405       .  A
C686        C687   1.400       .  A
C686        H691   1.084       .  S
C687        C688   1.409       .  A
C687        C694   1.443       .  S
C688        C689   1.404       .  A
C689        C690   1.397       .  A
C689        H692   1.084       .  S
C690        C693   1.444       .  S
C693        N695   1.157       .  T
C694        N696   1.157       .  T
C697        C698   1.407       .  A
C697        C702   1.419       .  A
C698        C699   1.402       .  A
C698        H703   1.085       .  S
C699        C700   1.407       .  A
C699        C706   1.444       .  S
C700        C701   1.398       .  A
C701        C702   1.400       .  A
C701        H704   1.086       .  S
C702        C705   1.444       .  S
C705        N707   1.157       .  T
C706        N708   1.157       .  T
C709        C710   1.406   1_655  A
C709        C714   1.408   1_655  A
C710        C711   1.397       .  A
C710        H715   1.086       .  S
C711        C712   1.413       .  A
C711        C718   1.445       .  S
C712        C713   1.412       .  A
C713        C714   1.404       .  A
C713        H716   1.085       .  S
C714        C717   1.444   1_455  S
C717        N719   1.157       .  T
C718        N720   1.158       .  T
C721        C722   1.412       .  A
C721        C726   1.412       .  A
C722        C723   1.412       .  A
C722        H727   1.083       .  S
C723        C724   1.408       .  A
C723        C730   1.442       .  S
C724        C725   1.407       .  A
C725        C726   1.398       .  A
C725        H728   1.085       .  S
C726        C729   1.445       .  S
C729        N731   1.158       .  T
C730        N732   1.157       .  T
C733        C734   1.412       .  A
C733        C738   1.407       .  A
C734        C735   1.414       .  A
C734        H739   1.083       .  S
C735        C736   1.410       .  A
C735        C742   1.441       .  S
C736        C737   1.410       .  A
C737        C738   1.394       .  A
C737        H740   1.084       .  S
C738        C741   1.446       .  S
C741        N743   1.157       .  T
C742        N744   1.157   1_565  T
