geometry optimzed in LAMMPS
_audit_creation_date              2020-11-30 
_audit_creation_method            'lammps2cif' 
_symmetry_space_group_name_H-M    'P1' 
_symmetry_Int_Tables_number       1 
_symmetry_cell_setting            triclinic 
loop_ 
_symmetry_equiv_pos_as_xyz 
  x,y,z 
_cell_length_a                    49.24067806423009 
_cell_length_b                    48.76723818445543 
_cell_length_c                    50.81210096005456 
_cell_angle_alpha                 89.79987719956664 
_cell_angle_beta                  89.7997735860056 
_cell_angle_gamma                 89.61630681935503 
loop_ 
_atom_site_label 
_atom_site_type_symbol 
_atom_site_fract_x 
_atom_site_fract_y 
_atom_site_fract_z 
_atom_site_charge 
C1          C  0.16547064  0.16935683  0.49001267     0.00870
C2          C  0.16145853  0.16689008  0.51680187     0.00870
C3          C  0.17217691  0.51342454  0.15890347     0.00870
C4          C  0.17193178  0.54151657  0.16112093     0.00870
C5          C  0.51794239  0.18249352  0.15108181     0.00870
C6          C  0.48995000  0.18098904  0.15230586     0.00870
C7          C  0.19131780  0.84569626  0.51164044     0.00870
C8          C  0.18939748  0.84534504  0.48446439     0.00870
C9          C  0.86062745  0.18640617  0.50876656     0.00870
C10         C  0.85514811  0.18211096  0.48222328     0.00870
C11         C  0.87833673  0.88699413  0.48753012     0.00870
C12         C  0.87885916  0.88894048  0.51459694     0.00870
C13         C  0.49404188  0.18104305  0.83740157     0.00870
C14         C  0.52141856  0.18488902  0.83458926     0.00870
C15         C  0.15489402  0.51500799  0.84873883     0.00870
C16         C  0.15718344  0.54289129  0.85319250     0.00870
C17         C  0.49699691  0.86815096  0.15840453     0.00870
C18         C  0.52485996  0.86715354  0.15665429     0.00870
C19         C  0.84846476  0.51621743  0.16081452     0.00870
C20         C  0.85090103  0.54404722  0.16505801     0.00870
C21         C  0.87284577  0.55167182  0.85663150     0.00870
C22         C  0.86276663  0.52633356  0.84913659     0.00870
C23         C  0.49474895  0.87575972  0.83667025     0.00870
C24         C  0.52261867  0.87573287  0.83593120     0.00870
C25         C  0.59530297  0.80159199  0.88900592     0.03440
C26         C  0.61521984  0.79812815  0.86949602    -0.12710
C27         C  0.63509394  0.77801810  0.87184339     0.00940
C28         C  0.63814393  0.76408769  0.89554736    -0.11240
C29         C  0.62013801  0.76839313  0.91643787     0.03430
C30         C  0.59792151  0.78688880  0.91313276    -0.10660
H31         H  0.61364462  0.80933696  0.85107833     0.09020
H32         H  0.65381068  0.74842825  0.89732108     0.06550
H33         H  0.58270642  0.78902711  0.92842899     0.06400
C34         C  0.79323434  0.59837959  0.91328658     0.03440
C35         C  0.78213655  0.59583678  0.88811223    -0.12710
C36         C  0.76257331  0.61455914  0.87965537     0.00940
C37         C  0.74614944  0.62685414  0.89878502    -0.11240
C38         C  0.75353474  0.62630617  0.92533194     0.03430
C39         C  0.77844777  0.61340727  0.93257599    -0.10660
H40         H  0.79354050  0.58481699  0.87339344     0.09020
H41         H  0.72951116  0.64010326  0.89308546     0.06550
H42         H  0.78657421  0.61599078  0.95216934     0.06400
C43         C  0.91939461  0.58392671  0.75805736     0.03440
C44         C  0.89832585  0.57544248  0.74123270    -0.12710
C45         C  0.89728661  0.58633043  0.71561950     0.00940
C46         C  0.92267761  0.58755491  0.70365712    -0.11240
C47         C  0.94359938  0.59954271  0.71828316     0.03430
C48         C  0.94182418  0.59784981  0.74635859    -0.10660
H49         H  0.88010977  0.56674776  0.74974226     0.09020
H50         H  0.92345082  0.58807084  0.68244539     0.06550
H51         H  0.95671852  0.60785794  0.75857751     0.06400
C52         C  0.96174756  0.78218552  0.60613336     0.03440
C53         C  0.95627996  0.79416451  0.58115516    -0.12710
C54         C  0.94932382  0.82250773  0.57946866     0.00940
C55         C  0.94829529  0.83804256  0.60261502    -0.11240
C56         C  0.94584637  0.82445178  0.62671220     0.03430
C57         C  0.95740197  0.79819272  0.62866330    -0.10660
H58         H  0.95598490  0.78149814  0.56370501     0.09020
H59         H  0.94109833  0.85909824  0.60145183     0.06550
H60         H  0.95853001  0.78816881  0.64762333     0.06400
C61         C  0.80232836  0.93863918  0.58475587     0.03440
C62         C  0.79754904  0.91420204  0.59851051    -0.12710
C63         C  0.77206516  0.90907708  0.60937469     0.00940
C64         C  0.75385671  0.93081079  0.61248327    -0.11240
C65         C  0.75999125  0.95699745  0.60306610     0.03430
C66         C  0.78382449  0.96080894  0.58776493    -0.10660
H67         H  0.81218046  0.89758406  0.59690266     0.09020
H68         H  0.73436809  0.92736430  0.62185450     0.06550
H69         H  0.78726795  0.98005555  0.57765401     0.06400
C70         C  0.58322262  0.92301330  0.75122934     0.03440
C71         C  0.59202192  0.89791046  0.74116510    -0.12710
C72         C  0.61084663  0.89646719  0.72099617     0.00940
C73         C  0.62090947  0.92023234  0.70975205    -0.11240
C74         C  0.61339702  0.94593063  0.71975746     0.03430
C75         C  0.59424227  0.94758464  0.74075642    -0.10660
H76         H  0.58516719  0.87891500  0.75015218     0.09020
H77         H  0.63631682  0.91866349  0.69449654     0.06550
H78         H  0.58842877  0.96726829  0.74887417     0.06400
O79         O  0.74403283  0.75202630  0.76209730    -0.88040
C80         C  0.78478026  0.69204811  0.72636996     0.87990
Mg81       Mg  0.70600445  0.76491095  0.74662972     1.58150
O82         O  0.81514270  0.75719323  0.72817111    -0.87770
O83         O  0.78262991  0.76426468  0.78004062    -0.75100
C84         C  0.74040757  0.79955917  0.63294500     0.93040
O85         O  0.71950691  0.69966037  0.72959290    -0.74910
O86         O  0.71753941  0.79201333  0.64164109    -0.82420
Mg87       Mg  0.74551112  0.70836420  0.76648055     1.57960
C88         C  0.84581003  0.79209719  0.66460840     0.92960
O89         O  0.76939121  0.71675138  0.80244413    -0.80680
H90         H  0.82797790  0.79029458  0.74761735    -0.06020
C91         C  0.77467768  0.73397891  0.66256629     0.87900
O92         O  0.72563546  0.80427563  0.73128190    -0.75190
O93         O  0.78078598  0.71034692  0.74273997    -0.87950
O94         O  0.84855012  0.77108129  0.67932505    -0.80760
C95         C  0.85661481  0.69590424  0.72620619     0.93080
C96         C  0.78803742  0.70000100  0.80775114     0.92930
Mg97       Mg  0.78322029  0.79271991  0.67582085     1.57950
O98         O  0.76136081  0.78534002  0.63755965    -0.80690
O99         O  0.80621397  0.79914378  0.71472753    -0.74930
O100        O  0.84083795  0.70074658  0.74532487    -0.80770
O101        O  0.70964515  0.70852914  0.79334473    -0.82480
O102        O  0.68323593  0.79317272  0.69179311    -0.80800
C103        C  0.81717634  0.78236531  0.73082176     0.87370
O104        O  0.74618824  0.78859335  0.69645352    -0.87940
O105        O  0.78715426  0.74975348  0.67724285    -0.88050
O106        O  0.74895295  0.73519204  0.66007945    -0.75100
Mg107      Mg  0.81293148  0.73238743  0.76216749     1.57970
O108        O  0.86112614  0.71416192  0.70889623    -0.82480
H109        H  0.74663561  0.78393799  0.78673776    -0.06200
O110        O  0.71505215  0.74060132  0.71241742    -0.87750
H111        H  0.69857519  0.70743141  0.69587437    -0.06030
H112        H  0.74765847  0.82821562  0.70652277    -0.06200
C113        C  0.71047859  0.71569764  0.71178405     0.87350
C114        C  0.75711306  0.76749506  0.77661650     0.87930
C115        C  0.74012726  0.80794522  0.71096732     0.87980
H116        H  0.78592152  0.71849480  0.65184414    -0.06180
O117        O  0.79935846  0.69621594  0.70608320    -0.75210
Mg118      Mg  0.71608773  0.76411730  0.67714832     1.58000
H119        H  0.77548394  0.67223946  0.72923815    -0.06200
C120        C  0.68970481  0.72350340  0.78745906     0.92970
O121        O  0.66671643  0.77822129  0.72987525    -0.82440
C122        C  0.66654817  0.79492954  0.71078646     0.93030
O123        O  0.81100765  0.70343028  0.79721045    -0.82420
Mg124      Mg  0.82340060  0.73436600  0.69286722     1.58180
O125        O  0.68496301  0.72854198  0.76354962    -0.80760
O126        O  0.82292691  0.79900707  0.65510179    -0.82450
C127        C  0.67373885  0.69087349  0.98276510     0.00870
C128        C  0.67490339  0.69027204  0.00974343     0.00870
C129        C  0.67768274  0.01897709  0.65644801     0.00870
C130        C  0.67667373  0.04693295  0.65838026     0.00870
C131        C  0.99894816  0.67986086  0.65254623     0.00870
C132        C  0.02676113  0.67619035  0.65589450     0.00870
C133        C  0.76679500  0.47168865  0.88634091     0.03440
C134        C  0.76512066  0.45538901  0.86388880    -0.12710
C135        C  0.75284734  0.42992965  0.86516705     0.00940
C136        C  0.73489148  0.42452372  0.88593071    -0.11240
C137        C  0.73403812  0.44092836  0.90842173     0.03430
C138        C  0.75114472  0.46450491  0.90911530    -0.10660
H139        H  0.77799635  0.45999652  0.84707619     0.09020
H140        H  0.72392428  0.40546448  0.88646436     0.06550
H141        H  0.75309637  0.47617252  0.92708020     0.06400
C142        C  0.58108150  0.27757667  0.87762606     0.03440
C143        C  0.60436660  0.27841308  0.86174478    -0.12710
C144        C  0.62616605  0.29534227  0.86815033     0.00940
C145        C  0.62260032  0.31565781  0.88699701    -0.11240
C146        C  0.60085413  0.31458867  0.90461963     0.03430
C147        C  0.57984939  0.29500171  0.90021372    -0.10660
H148        H  0.60715140  0.26304005  0.84656459     0.09020
H149        H  0.63968191  0.32861860  0.89187837     0.06550
H150        H  0.56359947  0.29267910  0.91442856     0.06400
C151        C  0.92670588  0.43806327  0.72562151     0.03440
C152        C  0.92500537  0.45977588  0.74428645    -0.12710
C153        C  0.90200371  0.46150496  0.76142509     0.00940
C154        C  0.88258984  0.44065209  0.76083329    -0.11240
C155        C  0.88510064  0.41893415  0.74327341     0.03430
C156        C  0.90601068  0.41879423  0.72485195    -0.10660
H157        H  0.94121805  0.47456524  0.74573924     0.09020
H158        H  0.86635741  0.44036090  0.77532838     0.06550
H159        H  0.90833661  0.40122259  0.71193808     0.06400
C160        C  0.89951507  0.28380954  0.55662800     0.03440
C161        C  0.87382816  0.29306362  0.56482737    -0.12710
C162        C  0.87067454  0.30779293  0.58800365     0.00940
C163        C  0.89363031  0.31896121  0.59977773    -0.11240
C164        C  0.91984172  0.31192175  0.59125086     0.03430
C165        C  0.92290435  0.29340018  0.56993709    -0.10660
H166        H  0.85577890  0.28542676  0.55527323     0.09020
H167        H  0.89129209  0.33139784  0.61726442     0.06550
H168        H  0.94288392  0.28597397  0.56439978     0.06400
C169        C  0.77338328  0.14509691  0.57222528     0.03440
C170        C  0.76442875  0.11816614  0.57870976    -0.12710
C171        C  0.73762399  0.11422281  0.58847037     0.00940
C172        C  0.72048589  0.13688315  0.59176187    -0.11240
C173        C  0.73149635  0.16286475  0.59169144     0.03430
C174        C  0.75547767  0.16717579  0.57760620    -0.10660
H175        H  0.77826800  0.10088689  0.57737483     0.09020
H176        H  0.70121191  0.13406790  0.60188599     0.06550
H177        H  0.76147540  0.18814939  0.57430242     0.06400
C178        C  0.62374653  0.09093812  0.75209082     0.03440
C179        C  0.59598125  0.09642900  0.75791349    -0.12710
C180        C  0.58871110  0.10460361  0.78389566     0.00940
C181        C  0.60894140  0.10504029  0.80316745    -0.11240
C182        C  0.63545112  0.10968388  0.79495211     0.03430
C183        C  0.64317120  0.09969282  0.77026772    -0.10660
H184        H  0.58066580  0.09483531  0.74278022     0.09020
H185        H  0.60355602  0.11124913  0.82301245     0.06550
H186        H  0.66396442  0.10148818  0.76363846     0.06400
O187        O  0.80151199  0.29768074  0.75105238    -0.88040
C188        C  0.78935387  0.21933972  0.72839107     0.87990
Mg189      Mg  0.81465132  0.31008017  0.78831785     1.58150
O190        O  0.73047555  0.25822618  0.74469521    -0.87770
O191        O  0.76715334  0.30882545  0.72635281    -0.75100
C192        C  0.73450999  0.25401235  0.86530613     0.93040
O193        O  0.83257990  0.24492979  0.77257465    -0.74910
O194        O  0.75608752  0.26582229  0.87176759    -0.82420
Mg195      Mg  0.82457448  0.26616272  0.73230562     1.57960
C196        C  0.67952749  0.21480347  0.79384393     0.92960
O197        O  0.81872374  0.28572237  0.69169386    -0.80680
H198        H  0.70111060  0.28475579  0.73435607    -0.06020
C199        C  0.76103887  0.21157599  0.80388404     0.87900
O200        O  0.77026908  0.32212531  0.79720441    -0.75190
O201        O  0.78749709  0.24459845  0.72823446    -0.87950
O202        O  0.68625568  0.22227339  0.77080078    -0.80760
C203        C  0.72259002  0.21000018  0.69305582     0.93080
C204        C  0.80183968  0.28600752  0.67275103     0.92930
Mg205      Mg  0.72037055  0.25664615  0.81123578     1.57950
O206        O  0.73600325  0.23670548  0.84735979    -0.80690
O207        O  0.70336005  0.27685992  0.77363685    -0.74930
O208        O  0.73843659  0.23022781  0.69118689    -0.80770
O209        O  0.86311790  0.29154568  0.73596656    -0.82480
O210        O  0.79203077  0.30869491  0.84873575    -0.80800
C211        C  0.71127700  0.27372810  0.75001260     0.87370
O212        O  0.75433269  0.28250668  0.81008824    -0.87940
O213        O  0.74569043  0.22713990  0.79136623    -0.88050
O214        O  0.77695101  0.22066993  0.82167477    -0.75100
Mg215      Mg  0.75377511  0.26744508  0.71091452     1.57970
O216        O  0.71155980  0.20281477  0.71466713    -0.82480
H217        H  0.79173779  0.33673495  0.74341601    -0.06200
O218        O  0.81067703  0.26901102  0.80253203    -0.87750
H219        H  0.83314541  0.23599123  0.81168808    -0.06030
H220        H  0.73093204  0.31619158  0.80798632    -0.06200
C221        C  0.82576522  0.24957188  0.79640628     0.87350
C222        C  0.78748623  0.31530981  0.74004800     0.87930
C223        C  0.75085719  0.30716453  0.80525086     0.87980
H224        H  0.76062801  0.18981156  0.79995640    -0.06180
O225        O  0.77073214  0.20458060  0.73812396    -0.75210
Mg226      Mg  0.78534719  0.26567554  0.83595973     1.58000
H227        H  0.80752963  0.20965765  0.72072696    -0.06200
C228        C  0.86453482  0.30607538  0.75654959     0.92970
O229        O  0.82716016  0.32603362  0.82785441    -0.82440
C230        C  0.80670764  0.32897656  0.84281811     0.93030
O231        O  0.77781859  0.27704595  0.67481755    -0.82420
Mg232      Mg  0.72863731  0.21517639  0.75463769     1.58180
O233        O  0.85656873  0.29622023  0.77814975    -0.80760
O234        O  0.68657658  0.22815171  0.81376961    -0.82450
C235        C  0.42620351  0.79972732  0.89271243     0.03440
C236        C  0.42967579  0.77660938  0.90937791    -0.12710
C237        C  0.40651524  0.76316759  0.91961846     0.00940
C238        C  0.38061604  0.77332038  0.91355503    -0.11240
C239        C  0.37707157  0.79661158  0.89794744     0.03430
C240        C  0.39993892  0.80887569  0.88664887    -0.10660
H241        H  0.44984799  0.76992685  0.91502733     0.09020
H242        H  0.36311681  0.76398282  0.92288138     0.06550
H243        H  0.39749146  0.82606369  0.87327768     0.06400
C244        C  0.23113274  0.61474322  0.90403889     0.03440
C245        C  0.21662660  0.63922312  0.90050118    -0.12710
C246        C  0.22881410  0.66467725  0.90349675     0.00940
C247        C  0.25540852  0.66566401  0.91309227    -0.11240
C248        C  0.27111805  0.64168065  0.91779842     0.03430
C249        C  0.25870461  0.61594280  0.91206904    -0.10660
H250        H  0.19580035  0.63844013  0.89371982     0.09020
H251        H  0.26384385  0.68560825  0.91630988     0.06550
H252        H  0.26996563  0.59696547  0.91356997     0.06400
C253        C  0.41657622  0.96042940  0.72373014     0.03440
C254        C  0.44070995  0.95336148  0.73747901    -0.12710
C255        C  0.43963790  0.94939902  0.76522754     0.00940
C256        C  0.41501119  0.95360627  0.77842703    -0.11240
C257        C  0.39120308  0.95188828  0.76398051     0.03430
C258        C  0.39188803  0.96053943  0.73783257    -0.10660
H259        H  0.45934697  0.94938560  0.72674901     0.09020
H260        H  0.41401218  0.94824133  0.79918037     0.06550
H261        H  0.37276489  0.96268150  0.72754574     0.06400
C262        C  0.31807588  0.92671833  0.57847941     0.03440
C263        C  0.29395865  0.91916828  0.56534046    -0.12710
C264        C  0.28554009  0.89140959  0.56555288     0.00940
C265        C  0.29975504  0.87241355  0.58137831    -0.11240
C266        C  0.32318924  0.88012746  0.59523602     0.03430
C267        C  0.33323212  0.90658995  0.59157130    -0.10660
H268        H  0.28194345  0.93459089  0.55524027     0.09020
H269        H  0.29141291  0.85211585  0.58397765     0.06550
H270        H  0.35157517  0.91259105  0.60174649     0.06400
C271        C  0.08122614  0.62047834  0.73300138     0.03440
C272        C  0.09721763  0.64348057  0.72860210    -0.12710
C273        C  0.11462087  0.65271092  0.74769575     0.00940
C274        C  0.11973947  0.63668492  0.76977615    -0.11240
C275        C  0.10748738  0.61099363  0.77285419     0.03430
C276        C  0.08642930  0.60350418  0.75520608    -0.10660
H277        H  0.09313491  0.65657159  0.71169943     0.09020
H278        H  0.13424248  0.64382429  0.78418862     0.06550
H279        H  0.07473073  0.58508482  0.75847499     0.06400
C280        C  0.11516322  0.74035432  0.61178484     0.03440
C281        C  0.13885974  0.73628913  0.62684961    -0.12710
C282        C  0.16331616  0.74894641  0.61966261     0.00940
C283        C  0.16360781  0.76596020  0.59772920    -0.11240
C284        C  0.14108497  0.76946808  0.58147663     0.03430
C285        C  0.11633007  0.75685444  0.58865682    -0.10660
H286        H  0.13807554  0.72322878  0.64408969     0.09020
H287        H  0.18247932  0.77571669  0.59214257     0.06550
H288        H  0.09856747  0.75933299  0.57635491     0.06400
O289        O  0.24685412  0.75203745  0.75680197    -0.88040
C290        C  0.26736688  0.81653725  0.71143877     0.87990
Mg291      Mg  0.21870208  0.75477400  0.78825836     1.58150
O292        O  0.31851851  0.78536205  0.74943305    -0.87770
O293        O  0.28442059  0.73284995  0.74214319    -0.75100
C294        C  0.27807522  0.83735923  0.85985871     0.93040
O295        O  0.21235491  0.80675577  0.74529272    -0.74910
O296        O  0.25382445  0.82940911  0.86195861    -0.82420
Mg297      Mg  0.23245333  0.77078144  0.72232568     1.57960
C298        C  0.35560817  0.84466495  0.79234203     0.92960
O299        O  0.25140810  0.73433665  0.70204924    -0.80680
H300        H  0.34368498  0.75476893  0.75984188    -0.06020
C301        C  0.27593494  0.85068873  0.78239042     0.87900
O302        O  0.25528027  0.74741117  0.81578276    -0.75190
O303        O  0.26873566  0.79291949  0.72016999    -0.87950
O304        O  0.35431717  0.82615215  0.77506877    -0.80760
C305        C  0.33862895  0.81830527  0.68898641     0.93080
C306        C  0.26042671  0.73857829  0.67933746     0.92930
Mg307      Mg  0.30851445  0.81228697  0.81490748     1.57950
O308        O  0.28633475  0.84506777  0.83762269    -0.80690
O309        O  0.33079934  0.77829239  0.79055564    -0.74930
O310        O  0.32266708  0.79794259  0.68812836    -0.80770
O311        O  0.19509455  0.74703948  0.72347658    -0.82480
O312        O  0.21962300  0.77848018  0.84823653    -0.80800
C313        C  0.33146251  0.77205638  0.76613221     0.87370
O314        O  0.27258577  0.78835462  0.81605889    -0.87940
O315        O  0.29183733  0.83095142  0.78018999    -0.88050
O316        O  0.25491164  0.84949996  0.79721188    -0.75100
Mg317      Mg  0.30307254  0.76633888  0.71491123     1.57970
O318        O  0.34671444  0.82810741  0.71082870    -0.82480
H319        H  0.25838431  0.71415378  0.76759883    -0.06200
O320        O  0.22243911  0.79783302  0.78660831    -0.87750
H321        H  0.20034266  0.83069758  0.77600650    -0.06030
H322        H  0.28972795  0.75697838  0.83560600    -0.06200
C323        C  0.21124036  0.81251552  0.76978351     0.87350
C324        C  0.26287902  0.73231359  0.75616792     0.87930
C325        C  0.27342558  0.76408963  0.82307886     0.87980
H326        H  0.28018922  0.86946782  0.77183056    -0.06180
O327        O  0.28394244  0.83461009  0.71885470    -0.75210
Mg328      Mg  0.23688189  0.81385306  0.82275042     1.58000
H329        H  0.25144077  0.82210169  0.69787210    -0.06200
C330        C  0.17744960  0.74727907  0.74148245     0.92970
O331        O  0.19029323  0.75818975  0.82246222    -0.82440
C332        C  0.20207499  0.75988704  0.84442844     0.93030
O333        O  0.28381131  0.74899310  0.67683638    -0.82420
Mg334      Mg  0.31940947  0.82940584  0.74711476     1.58180
O335        O  0.18144455  0.76012545  0.76266148    -0.80760
O336        O  0.34449789  0.84060643  0.81442682    -0.82450
C337        C  0.36386147  0.03372319  0.64598499     0.00870
C338        C  0.37125998  0.00841445  0.63580054     0.00870
C339        C  0.42062669  0.23353283  0.90918893     0.03440
C340        C  0.39925344  0.21502357  0.90598482    -0.12710
C341        C  0.37240036  0.22404435  0.90813733     0.00940
C342        C  0.36759030  0.25034005  0.91791591    -0.11240
C343        C  0.38834301  0.26713540  0.92746204     0.03430
C344        C  0.41551200  0.25932853  0.92130020    -0.10660
H345        H  0.40352033  0.19513193  0.89739610     0.09020
H346        H  0.34733664  0.25885363  0.91661782     0.06550
H347        H  0.43224878  0.27297236  0.92502774     0.06400
C348        C  0.25236253  0.46001547  0.88443015     0.03440
C349        C  0.27150145  0.45813053  0.86378323    -0.12710
C350        C  0.29633078  0.44482171  0.86774936     0.00940
C351        C  0.30651820  0.44350071  0.89307921    -0.11240
C352        C  0.28846586  0.44394133  0.91441134     0.03430
C353        C  0.26100748  0.45202833  0.91007682    -0.10660
H354        H  0.26587896  0.46286508  0.84374905     0.09020
H355        H  0.32633829  0.43396087  0.89561179     0.06550
H356        H  0.24648688  0.45081381  0.92607414     0.06400
C357        C  0.25978279  0.07996548  0.60939948     0.03440
C358        C  0.24956501  0.08139060  0.58311319    -0.12710
C359        C  0.22244551  0.09093227  0.57863127     0.00940
C360        C  0.20596178  0.09681732  0.60030974    -0.11240
C361        C  0.21829218  0.10356243  0.62383323     0.03430
C362        C  0.24451339  0.09358966  0.62888662    -0.10660
H363        H  0.26239779  0.07595444  0.56658643     0.09020
H364        H  0.18553374  0.10463007  0.59701321     0.06550
H365        H  0.25432235  0.09899480  0.64715991     0.06400
C366        C  0.42980818  0.10288100  0.77828054     0.03440
C367        C  0.43172691  0.08713356  0.75449492    -0.12710
C368        C  0.40802869  0.07362135  0.74472739     0.00940
C369        C  0.38382543  0.07626702  0.75893257    -0.11240
C370        C  0.38103366  0.09704440  0.77707842     0.03430
C371        C  0.40392193  0.10773080  0.78893562    -0.10660
H372        H  0.45079096  0.08562551  0.74392681     0.09020
H373        H  0.36522593  0.06807772  0.75072022     0.06550
H374        H  0.40114796  0.12356855  0.80367506     0.06400
C375        C  0.10737551  0.24186725  0.58937187     0.03440
C376        C  0.12950940  0.24634541  0.60602056    -0.12710
C377        C  0.13043631  0.26924927  0.62243251     0.00940
C378        C  0.10698199  0.28484602  0.62623335    -0.11240
C379        C  0.08327005  0.27973206  0.61213420     0.03430
C380        C  0.08364224  0.25867275  0.59256429    -0.10660
H381        H  0.14774783  0.23403145  0.60342707     0.09020
H382        H  0.10763698  0.30284426  0.63863250     0.06550
H383        H  0.06645462  0.25616346  0.57959864     0.06400
C384        C  0.10303343  0.46589580  0.76186193     0.03440
C385        C  0.12902819  0.45920766  0.75298506    -0.12710
C386        C  0.13335135  0.43851543  0.73504496     0.00940
C387        C  0.11154168  0.42676301  0.72220035    -0.11240
C388        C  0.08487233  0.43399476  0.72900468     0.03430
C389        C  0.08029562  0.45319736  0.74977681    -0.10660
H390        H  0.14665442  0.46816104  0.76235248     0.09020
H391        H  0.11526984  0.41058653  0.70800309     0.06550
H392        H  0.05986930  0.45787498  0.75638176     0.06400
O393        O  0.27526068  0.25890600  0.69303725    -0.88040
C394        C  0.21567888  0.30141677  0.72617782     0.87990
Mg395      Mg  0.28406278  0.21968819  0.70659784     1.58150
O396        O  0.28195820  0.32364374  0.73677656    -0.87770
O397        O  0.29368252  0.29800573  0.68176370    -0.75100
C398        C  0.29739972  0.22878266  0.83168630     0.93040
O399        O  0.21719602  0.23703032  0.71693617    -0.74910
O400        O  0.28772153  0.21297769  0.81453873    -0.82420
Mg401      Mg  0.23336849  0.26524135  0.68427020     1.57960
C402        C  0.30252455  0.34452770  0.81221337     0.92960
O403        O  0.24960316  0.29245175  0.65253826    -0.80680
H404        H  0.31873940  0.33568686  0.72477614    -0.06020
C405        C  0.24585363  0.27913833  0.79617865     0.87900
O406        O  0.32074608  0.23519484  0.72942882    -0.75190
O407        O  0.23537538  0.29802424  0.71132992    -0.87950
O408        O  0.28970677  0.35023939  0.79130811    -0.80760
C409        C  0.23075083  0.37596458  0.73434421     0.93080
C410        C  0.23406222  0.31262649  0.64913638     0.92930
Mg411      Mg  0.30648693  0.28295929  0.79203998     1.57950
O412        O  0.29929198  0.25473226  0.82844749    -0.80690
O413        O  0.31917110  0.31061452  0.75684231    -0.74930
O414        O  0.23440515  0.36135475  0.71412928    -0.80770
O415        O  0.22919171  0.22953534  0.65655865    -0.82480
O416        O  0.29417120  0.18578309  0.76255781    -0.80800
C417        C  0.30696384  0.32395665  0.73878102     0.87370
O418        O  0.30297741  0.24896514  0.76661148    -0.87940
O419        O  0.26480550  0.29072398  0.78490128    -0.88050
O420        O  0.24261302  0.25354145  0.79413221    -0.75100
Mg421      Mg  0.26320680  0.32944876  0.69913852     1.57970
O422        O  0.24337445  0.37141471  0.75559150    -0.82480
H423        H  0.31015144  0.26084237  0.67270746    -0.06200
O424        O  0.25485560  0.22769739  0.73777543    -0.87750
H425        H  0.21925206  0.21141107  0.74850096    -0.06030
H426        H  0.34305027  0.24901591  0.76006765    -0.06200
C427        C  0.23012188  0.22460401  0.73501979     0.87350
C428        C  0.29370914  0.27189590  0.68213092     0.87930
C429        C  0.32307714  0.24425021  0.75266386     0.87980
H430        H  0.23117251  0.29118790  0.80708379    -0.06180
O431        O  0.21837280  0.31193408  0.74882565    -0.75210
Mg432      Mg  0.27003163  0.22102358  0.77580750     1.58000
H433        H  0.19583984  0.29462698  0.72003276    -0.06200
C434        C  0.23325103  0.20571497  0.66596229     0.92970
O435        O  0.29489953  0.17750478  0.71975330    -0.82440
C436        C  0.30063630  0.17106908  0.74319234     0.93030
O437        O  0.23945258  0.33491146  0.66055422    -0.82420
Mg438      Mg  0.25542884  0.32990374  0.76973288     1.58180
O439        O  0.25054171  0.20139499  0.68385564    -0.80760
O440        O  0.30864634  0.32008544  0.81887479    -0.82450
C441        C  0.99330655  0.37265469  0.65729941     0.00870
C442        C  0.02066169  0.36754841  0.65904728     0.00870
C443        C  0.34318968  0.36553706  0.00643459     0.00870
C444        C  0.34155081  0.36370355  0.97956781     0.00870
C445        C  0.36630756  0.03498216  0.35232989     0.00870
C446        C  0.37156294  0.00779605  0.35799836     0.00870
C447        C  0.26588621  0.45833419  0.11100412     0.03440
C448        C  0.27215391  0.45453519  0.08391680    -0.12710
C449        C  0.29714085  0.44204722  0.07657740     0.00940
C450        C  0.31543699  0.43412033  0.09612034    -0.11240
C451        C  0.30774420  0.43372406  0.12238688     0.03430
C452        C  0.28338578  0.44654150  0.12985157    -0.10660
H453        H  0.25802941  0.46106232  0.06884635     0.09020
H454        H  0.33428900  0.42399999  0.09059472     0.06550
H455        H  0.27709967  0.44594514  0.15029663     0.06400
C456        C  0.41411711  0.23448194  0.08280003     0.03440
C457        C  0.41032800  0.25960835  0.06878282    -0.12710
C458        C  0.38348693  0.26928355  0.06372427     0.00940
C459        C  0.36223025  0.25565092  0.07651463    -0.11240
C460        C  0.36546241  0.22983077  0.08793534     0.03430
C461        C  0.39147230  0.21849937  0.08916406    -0.10660
H462        H  0.42774086  0.27156884  0.06283369     0.09020
H463        H  0.34295325  0.26615225  0.07873460     0.06550
H464        H  0.39447861  0.19911617  0.09931205     0.06400
C465        C  0.42251111  0.12821821  0.23230350     0.03440
C466        C  0.42850573  0.10806715  0.25187815    -0.12710
C467        C  0.40755303  0.09904585  0.26903582     0.00940
C468        C  0.38165278  0.11008006  0.26658958    -0.11240
C469        C  0.37563489  0.13007112  0.24813531     0.03430
C470        C  0.39596863  0.13918052  0.23090986    -0.10660
H471        H  0.44870336  0.09930017  0.25332427     0.09020
H472        H  0.36558195  0.10266421  0.27943387     0.06550
H473        H  0.39129275  0.15503197  0.21660132     0.06400
C474        C  0.26845763  0.09041170  0.39381170     0.03440
C475        C  0.25520717  0.08851072  0.41895818    -0.12710
C476        C  0.23018665  0.10287521  0.42338856     0.00940
C477        C  0.21876024  0.11785068  0.40286057    -0.11240
C478        C  0.23358261  0.12337587  0.38046343     0.03430
C479        C  0.25792825  0.10961092  0.37562283    -0.10660
H480        H  0.26391344  0.07633226  0.43465366     0.09020
H481        H  0.20032830  0.12974229  0.40627469     0.06550
H482        H  0.26933445  0.11495857  0.35807779     0.06400
C483        C  0.12532926  0.26105042  0.42521111     0.03440
C484        C  0.14779430  0.27438292  0.41396561    -0.12710
C485        C  0.14573363  0.30057977  0.40319090     0.00940
C486        C  0.12013706  0.31186027  0.39915073    -0.11240
C487        C  0.09652626  0.29743574  0.40565381     0.03430
C488        C  0.09895292  0.27204933  0.41968964    -0.10660
H489        H  0.16756714  0.26456175  0.41452706     0.09020
H490        H  0.11850688  0.33177671  0.38974414     0.06550
H491        H  0.08090924  0.26166353  0.42655948     0.06400
C492        C  0.11525738  0.43537527  0.21942327     0.03440
C493        C  0.13897395  0.41957556  0.21813676    -0.12710
C494        C  0.14624954  0.40313308  0.23927210     0.00940
C495        C  0.12653488  0.39572618  0.25768701    -0.11240
C496        C  0.10016495  0.40689155  0.25674137     0.03430
C497        C  0.09518940  0.42879838  0.23865902    -0.10660
H498        H  0.15463396  0.42554469  0.20419332     0.09020
H499        H  0.13236570  0.38244763  0.27389971     0.06550
H500        H  0.07663957  0.44076293  0.23989305     0.06400
O501        O  0.27144421  0.30687858  0.21529546    -0.88040
C502        C  0.31080451  0.24238685  0.24655854     0.87990
Mg503      Mg  0.27382972  0.34582036  0.23356969     1.58150
O504        O  0.23983585  0.24763928  0.25523539    -0.87770
O505        O  0.24104438  0.27840105  0.20071741    -0.75100
C506        C  0.24322548  0.32803084  0.35503429     0.93040
O507        O  0.32736987  0.30697867  0.24757058    -0.74910
O508        O  0.25364837  0.34788316  0.34260109    -0.82420
Mg509      Mg  0.30969247  0.28753114  0.20983075     1.57960
C510        C  0.21621193  0.22503806  0.32886648     0.92960
O511        O  0.29683170  0.26660130  0.17113840    -0.80680
H512        H  0.20157720  0.24731524  0.24189151    -0.06020
C513        C  0.28659243  0.27302239  0.31616282     0.87900
O514        O  0.23144638  0.33800733  0.25140878    -0.75190
O515        O  0.29447467  0.25472932  0.23226106    -0.87950
O516        O  0.21935160  0.22259859  0.30441573    -0.80760
C517        C  0.27206031  0.18073987  0.25016150     0.93080
C518        C  0.29056432  0.24191069  0.16570265     0.92930
Mg519      Mg  0.22793242  0.28523105  0.31352207     1.57950
O520        O  0.24926151  0.30373695  0.34870046    -0.80690
O521        O  0.20620854  0.26688895  0.27693200    -0.74930
O522        O  0.27300336  0.19764048  0.23134544    -0.80770
O523        O  0.32375494  0.32382158  0.18595518    -0.82480
O524        O  0.25578174  0.37797022  0.29019581    -0.80800
C525        C  0.21541042  0.25366722  0.25714358     0.87370
O526        O  0.23960258  0.31874413  0.28968770    -0.87940
O527        O  0.26592567  0.26776432  0.30329511    -0.88050
O528        O  0.29426683  0.29768908  0.31963434    -0.75100
Mg529      Mg  0.25672344  0.23792641  0.21813862     1.57970
O530        O  0.25755089  0.18546700  0.27027082    -0.82480
H531        H  0.24130799  0.31896885  0.19148713    -0.06200
O532        O  0.29379305  0.32872018  0.26683352    -0.87750
H533        H  0.33138890  0.32826915  0.28164896    -0.06030
H534        H  0.20188059  0.32708431  0.27715864    -0.06200
C535        C  0.31796894  0.32176111  0.26611436     0.87350
C536        C  0.25111181  0.30225214  0.20186114     0.87930
C537        C  0.22342693  0.32803395  0.27322437     0.87980
H538        H  0.29819136  0.25640062  0.32479750    -0.06180
O539        O  0.30338111  0.23167391  0.26821550    -0.75210
Mg540      Mg  0.27559050  0.33854387  0.30413267     1.58000
H541        H  0.33192218  0.24117768  0.24075513    -0.06200
C542        C  0.32431675  0.34858908  0.19363245     0.92970
O543        O  0.27570258  0.38690397  0.25254962    -0.82440
C544        C  0.25659530  0.39110914  0.26868968     0.93030
O545        O  0.27591508  0.22728112  0.18046373    -0.82420
Mg546      Mg  0.26095903  0.22807990  0.28692199     1.58180
O547        O  0.31518992  0.35532457  0.21606737    -0.80760
O548        O  0.21784192  0.24851637  0.33930322    -0.82450
C549        C  0.00124509  0.36314409  0.33546484     0.00870
C550        C  0.02904142  0.36183756  0.33838421     0.00870
C551        C  0.66789682  0.39280695  0.99205464     0.00870
C552        C  0.64813567  0.37239786  0.99293168     0.00870
C553        C  0.95217101  0.41238806  0.24123424     0.03440
C554        C  0.95217423  0.39147046  0.22232115    -0.12710
C555        C  0.93956759  0.39383815  0.19776569     0.00940
C556        C  0.92777440  0.41928792  0.19143011    -0.11240
C557        C  0.92501619  0.44016450  0.21014753     0.03430
C558        C  0.93739974  0.43689191  0.23533965    -0.10660
H559        H  0.96047936  0.37192777  0.22803785     0.09020
H560        H  0.91826231  0.42254978  0.17259713     0.06550
H561        H  0.93549461  0.45299754  0.24982251     0.06400
C562        C  0.89880416  0.27270672  0.42272790     0.03440
C563        C  0.92567577  0.28061486  0.41584079    -0.12710
C564        C  0.93126572  0.30834264  0.40932624     0.00940
C565        C  0.91030382  0.32769890  0.41061152    -0.11240
C566        C  0.88356869  0.31885563  0.40970815     0.03430
C567        C  0.87785523  0.29230295  0.41884047    -0.10660
H568        H  0.94171590  0.26541115  0.41443617     0.09020
H569        H  0.91441777  0.34868613  0.40473463     0.06550
H570        H  0.85691590  0.28635674  0.42085053     0.06400
C571        C  0.57462545  0.27400441  0.10465653     0.03440
C572        C  0.58089568  0.28881756  0.08095329    -0.12710
C573        C  0.60427821  0.30628801  0.08006039     0.00940
C574        C  0.62116190  0.30656324  0.10221280    -0.11240
C575        C  0.61667834  0.28934734  0.12376919     0.03430
C576        C  0.59178728  0.27663733  0.12628376    -0.10660
H577        H  0.56833199  0.28637668  0.06370567     0.09020
H578        H  0.63952905  0.31852598  0.10156711     0.06550
H579        H  0.58749709  0.26529850  0.14420143     0.06400
C580        C  0.75630901  0.46894166  0.10584237     0.03440
C581        C  0.74257752  0.46792519  0.08108532    -0.12710
C582        C  0.71931398  0.45061568  0.07821576     0.00940
C583        C  0.71087803  0.43495330  0.09976588    -0.11240
C584        C  0.72825343  0.43120461  0.12098683     0.03430
C585        C  0.74872811  0.45029895  0.12533330    -0.10660
H586        H  0.75000890  0.47971971  0.06451430     0.09020
H587        H  0.69455258  0.42034866  0.09718486     0.06550
H588        H  0.76171431  0.44824801  0.14241096     0.06400
C589        C  0.59718338  0.10381986  0.27310728     0.03440
C590        C  0.58501272  0.10545966  0.24740849    -0.12710
C591        C  0.57382499  0.13110311  0.23836473     0.00940
C592        C  0.57460212  0.15346835  0.25564637    -0.11240
C593        C  0.59310790  0.15321568  0.27615293     0.03430
C594        C  0.59997942  0.12818711  0.28746480    -0.10660
H595        H  0.58538760  0.08783442  0.23453263     0.09020
H596        H  0.56699893  0.17326597  0.24912393     0.06550
H597        H  0.61327957  0.12841004  0.30445577     0.06400
C598        C  0.76133206  0.13392645  0.43699663     0.03440
C599        C  0.75054579  0.15918141  0.42894362    -0.12710
C600        C  0.73415012  0.16134701  0.40695701     0.00940
C601        C  0.72416499  0.13760077  0.39534526    -0.11240
C602        C  0.73233687  0.11162910  0.40424660     0.03430
C603        C  0.75204052  0.10963309  0.42460288    -0.10660
H604        H  0.75809614  0.17802214  0.43744144     0.09020
H605        H  0.71171576  0.13915388  0.37785300     0.06550
H606        H  0.76033148  0.08984861  0.43018684     0.06400
O607        O  0.74624591  0.23911281  0.22660861    -0.88040
C608        C  0.73535072  0.31141699  0.19709283     0.87990
Mg609      Mg  0.73847470  0.23597063  0.26745910     1.58150
O610        O  0.80062724  0.28391825  0.19549296    -0.87770
O611        O  0.77244653  0.22811605  0.19305506    -0.75100
C612        C  0.82027021  0.32430660  0.31950713     0.93040
O613        O  0.70328182  0.28747727  0.24348047    -0.74910
O614        O  0.79689673  0.31398177  0.32297993    -0.82420
Mg615      Mg  0.71295468  0.25868692  0.20823722     1.57960
C616        C  0.86543863  0.32718599  0.21347952     0.92960
O617        O  0.72253300  0.23199589  0.17399785    -0.80680
H618        H  0.82574632  0.25292001  0.18661035    -0.06020
C619        C  0.78621576  0.34087146  0.25301120     0.87900
O620        O  0.78417515  0.23175717  0.27512898    -0.75190
O621        O  0.74129772  0.28688112  0.19458293    -0.87950
O622        O  0.84391818  0.32805778  0.20016400    -0.80760
C623        C  0.77954511  0.33080338  0.14598579     0.93080
C624        C  0.71886715  0.24466585  0.15272141     0.92930
Mg625      Mg  0.83031999  0.29731473  0.25881541     1.57950
O626        O  0.83265153  0.32336804  0.29723855    -0.80690
O627        O  0.83176803  0.26905981  0.22283361    -0.74930
O628        O  0.76698546  0.30832446  0.14564309    -0.80770
O629        O  0.68384101  0.22782231  0.22280214    -0.82480
O630        O  0.76021455  0.26162453  0.32633470    -0.80800
C631        C  0.81972420  0.26828860  0.20079943     0.87370
O632        O  0.79821399  0.27412545  0.27588346    -0.87940
O633        O  0.79936822  0.32275783  0.24179251    -0.88050
O634        O  0.77075166  0.33529060  0.27215385    -0.75100
Mg635      Mg  0.77135842  0.26870643  0.16864239     1.57970
O636        O  0.80178128  0.33301726  0.15789045    -0.82480
H637        H  0.76413352  0.20216678  0.22353063    -0.06200
O638        O  0.73792913  0.27959147  0.26920953    -0.87750
H639        H  0.70875403  0.30673472  0.27855438    -0.06030
H640        H  0.82308249  0.24238519  0.28302678    -0.06200
C641        C  0.71651592  0.29203708  0.26448942     0.87350
C642        C  0.76102061  0.22227299  0.21499306     0.87930
C643        C  0.80271813  0.24931739  0.27851274     0.87980
H644        H  0.78676569  0.36160229  0.24542650    -0.06180
O645        O  0.75335663  0.32944291  0.20068364    -0.75210
Mg646      Mg  0.76636255  0.29629353  0.29628169     1.58000
H647        H  0.71421648  0.31756901  0.19694719    -0.06200
C648        C  0.67772491  0.22619785  0.24693530     0.92970
O649        O  0.73054179  0.23244811  0.30956991    -0.82440
C650        C  0.74347189  0.24203322  0.32879910     0.93030
O651        O  0.73928843  0.25340341  0.14032319    -0.82420
Mg652      Mg  0.79978838  0.32725150  0.20098782     1.58180
O653        O  0.69229855  0.23688168  0.26446881    -0.80760
O654        O  0.86539492  0.32049085  0.23786862    -0.82450
C655        C  0.68267681  0.01352237  0.32906960     0.00870
C656        C  0.67569137  0.04039861  0.33278230     0.00870
C657        C  0.79037039  0.92289760  0.41857492     0.03440
C658        C  0.77811872  0.94733311  0.40843870    -0.12710
C659        C  0.75766031  0.94548659  0.38853113     0.00940
C660        C  0.75002558  0.91954443  0.37922013    -0.11240
C661        C  0.76130609  0.89548088  0.38962495     0.03430
C662        C  0.78192576  0.89785627  0.40823757    -0.10660
H663        H  0.78383096  0.96711673  0.41616693     0.09020
H664        H  0.73508685  0.91840047  0.36371329     0.06550
H665        H  0.79123567  0.87952520  0.41599294     0.06400
C666        C  0.59938199  0.92273758  0.22206257     0.03440
C667        C  0.60667827  0.94688789  0.23578351    -0.12710
C668        C  0.63031739  0.94653398  0.25183545     0.00940
C669        C  0.64488929  0.92201183  0.25510362    -0.11240
C670        C  0.63646129  0.89808062  0.24291845     0.03430
C671        C  0.61541798  0.89924314  0.22486647    -0.10660
H672        H  0.59403013  0.96508867  0.23461109     0.09020
H673        H  0.66182679  0.92115188  0.26868786     0.06550
H674        H  0.60903534  0.88051254  0.21529478     0.06400
C675        C  0.96211255  0.77862459  0.40130866     0.03440
C676        C  0.96074287  0.79238681  0.42599696    -0.12710
C677        C  0.94797931  0.81869583  0.42744682     0.00940
C678        C  0.93705819  0.83026607  0.40463118    -0.11240
C679        C  0.93363241  0.81435406  0.38249222     0.03430
C680        C  0.94765028  0.78965925  0.38002526    -0.10660
H681        H  0.96890198  0.78278685  0.44352984     0.09020
H682        H  0.92525711  0.84912999  0.40601687     0.06550
H683        H  0.94490235  0.77753272  0.36237672     0.06400
C684        C  0.89544722  0.59935014  0.25454539     0.03440
C685        C  0.87484740  0.61927922  0.25574711    -0.12710
C686        C  0.87585240  0.64023506  0.27428265     0.00940
C687        C  0.89344098  0.63719731  0.29546113    -0.11240
C688        C  0.91709384  0.62155133  0.29253735     0.03430
C689        C  0.91796963  0.60149511  0.27212246    -0.10660
H690        H  0.85985269  0.62045299  0.24017280     0.09020
H691        H  0.89313973  0.65236010  0.31092812     0.06550
H692        H  0.93589757  0.58887411  0.26929442     0.06400
C693        C  0.57827173  0.77020308  0.11228827     0.03440
C694        C  0.58469941  0.76397319  0.08569055    -0.12710
C695        C  0.59769799  0.73869203  0.07966472     0.00940
C696        C  0.60304192  0.72001444  0.09988289    -0.11240
C697        C  0.60289506  0.72887479  0.12585424     0.03430
C698        C  0.58910678  0.75322286  0.13207973    -0.10660
H699        H  0.58021548  0.77856560  0.07017449     0.09020
H700        H  0.61351221  0.70096153  0.09522332     0.06550
H701        H  0.58897924  0.76054228  0.15215942     0.06400
C702        C  0.79546446  0.62556201  0.10014845     0.03440
C703        C  0.80559927  0.65152756  0.10665541    -0.12710
C704        C  0.79800405  0.67476529  0.09225441     0.00940
C705        C  0.78220150  0.67170076  0.07002223    -0.11240
C706        C  0.76835828  0.64728968  0.06509328     0.03430
C707        C  0.77559336  0.62356956  0.07992712    -0.10660
H708        H  0.81857184  0.65375342  0.12369442     0.09020
H709        H  0.77756349  0.69003819  0.05878418     0.06550
H710        H  0.76576101  0.60419486  0.07616421     0.06400
O711        O  0.78504498  0.76258130  0.30302181    -0.88040
C712        C  0.72748609  0.81647246  0.28444766     0.87990
Mg713      Mg  0.82292056  0.76626781  0.28394823     1.58150
O714        O  0.71951975  0.74808701  0.26718458    -0.87770
O715        O  0.75250925  0.73525484  0.31674970    -0.75100
C716        C  0.79682100  0.76240725  0.16113001     0.94960
O717        O  0.79166612  0.82644516  0.28465896    -0.74910
O718        O  0.81646393  0.76941768  0.17553616    -0.82420
Mg719      Mg  0.77230113  0.80059666  0.31818699     1.57960
C720        C  0.69320653  0.73148415  0.19189363     0.92960
O721        O  0.75263809  0.77500964  0.34950297    -0.80680
H722        H  0.71760308  0.70790503  0.27514388    -0.06020
C723        C  0.74762508  0.80178849  0.20959612     0.87900
O724        O  0.81102159  0.72860976  0.25955784    -0.75190
O725        O  0.73709673  0.79611831  0.29565058    -0.87950
O726        O  0.68750482  0.74034247  0.21469312    -0.80760
C727        C  0.66250854  0.78942663  0.27816303     0.93080
C728        C  0.73189186  0.78659136  0.35877224     0.92930
Mg729      Mg  0.75467672  0.74127191  0.20512364     1.57950
O730        O  0.77245052  0.76382074  0.16947314    -0.80690
O731        O  0.73645788  0.71707914  0.24053613    -0.74930
O732        O  0.67602211  0.78829397  0.29930911    -0.80770
O733        O  0.81003428  0.80515928  0.34207941    -0.82480
O734        O  0.85018894  0.75667529  0.22390668    -0.80800
C735        C  0.72413945  0.72378724  0.26169559     0.87370
O736        O  0.78966444  0.74750683  0.22669030    -0.87940
O737        O  0.74036150  0.77947674  0.21900201    -0.88050
O738        O  0.77269124  0.80786454  0.20709313    -0.75100
Mg739      Mg  0.71353123  0.76137572  0.30771305     1.57970
O740        O  0.66457870  0.77014785  0.26195429    -0.82480
H741        H  0.79275834  0.72520363  0.31794935    -0.06200
O742        O  0.80590787  0.79492342  0.25722731    -0.87750
H743        H  0.81084587  0.83501766  0.25006111    -0.06030
H744        H  0.79642211  0.70704386  0.22867342    -0.06200
C745        C  0.80319130  0.81938070  0.26321263     0.87350
C746        C  0.77762381  0.74039261  0.31265215     0.87930
C747        C  0.79907824  0.72692406  0.23761713     0.87980
H748        H  0.73235030  0.81649438  0.20349630    -0.06180
O749        O  0.71446551  0.81414203  0.26307263    -0.75210
Mg750      Mg  0.81196069  0.78337101  0.21694030     1.58000
H751        H  0.73046284  0.83657942  0.29281633    -0.06200
C752        C  0.83300027  0.80858204  0.33133495     0.92970
O753        O  0.86187025  0.77123161  0.26260567    -0.82440
C754        C  0.86335128  0.75322123  0.24502789     0.93030
O755        O  0.70906098  0.77934298  0.34993997    -0.82420
Mg756      Mg  0.70264615  0.77572305  0.23926878     1.58180
O757        O  0.83748970  0.80178378  0.30778154    -0.80760
O758        O  0.71689318  0.73371029  0.18230464    -0.82450
C759        C  0.02507849  0.66881087  0.35161626     0.00870
C760        C  0.99839081  0.67498213  0.35753391     0.00870
C761        C  0.31250516  0.92443257  0.40869611     0.03440
C762        C  0.28877661  0.91891902  0.42331772    -0.12710
C763        C  0.28108341  0.89145792  0.42786484     0.00940
C764        C  0.29872529  0.87036436  0.41932802    -0.11240
C765        C  0.31966737  0.87540548  0.40097157     0.03430
C766        C  0.32651634  0.90286892  0.39641604    -0.10660
H767        H  0.27626013  0.93571740  0.43033930     0.09020
H768        H  0.29448744  0.84963161  0.42556991     0.06550
H769        H  0.34176483  0.90831040  0.38210260     0.06400
C770        C  0.41727276  0.95978846  0.26729511     0.03440
C771        C  0.44168702  0.95066141  0.25478254    -0.12710
C772        C  0.44149220  0.94442375  0.22731268     0.00940
C773        C  0.41704511  0.94708865  0.21352864    -0.11240
C774        C  0.39288799  0.94829815  0.22762248     0.03430
C775        C  0.39328884  0.96050071  0.25231055    -0.10660
H776        H  0.45986343  0.94720007  0.26627339     0.09020
H777        H  0.41613814  0.93928419  0.19355829     0.06550
H778        H  0.37397521  0.96472824  0.26178347     0.06400
C779        C  0.26402525  0.63952414  0.06460477     0.03440
C780        C  0.25543439  0.61590715  0.07857560    -0.12710
C781        C  0.23417129  0.61820396  0.09741694     0.00940
C782        C  0.22274131  0.64414926  0.10261112    -0.11240
C783        C  0.23069705  0.66751709  0.08852875     0.03430
C784        C  0.25078444  0.66457366  0.06929315    -0.10660
H785        H  0.26504290  0.59624851  0.07491338     0.09020
H786        H  0.20800337  0.64599800  0.11834646     0.06550
H787        H  0.25683219  0.68230927  0.05792626     0.06400
C788        C  0.07151545  0.62227692  0.26287149     0.03440
C789        C  0.08142741  0.59990318  0.24792289    -0.12710
C790        C  0.10163157  0.60465550  0.22847001     0.00940
C791        C  0.11230087  0.63104728  0.22522978    -0.11240
C792        C  0.10322356  0.65258496  0.24096074     0.03430
C793        C  0.08236363  0.64830847  0.25869467    -0.10660
H794        H  0.07385268  0.57942066  0.25143636     0.09020
H795        H  0.12895646  0.63438501  0.21157970     0.06550
H796        H  0.07532909  0.66548489  0.27048190     0.06400
C797        C  0.11771032  0.72772057  0.39421689     0.03440
C798        C  0.11911040  0.74632814  0.41574900    -0.12710
C799        C  0.14446096  0.75785765  0.42285163     0.00940
C800        C  0.16750441  0.75087781  0.40802592    -0.11240
C801        C  0.16641409  0.73296006  0.38687517     0.03430
C802        C  0.14174250  0.72083925  0.38054039    -0.10660
H803        H  0.10088057  0.75188922  0.42649636     0.09020
H804        H  0.18681850  0.76031065  0.41250899     0.06550
H805        H  0.14097554  0.70695052  0.36397403     0.06400
C806        C  0.40250697  0.76560151  0.06876607     0.03440
C807        C  0.42609727  0.77487333  0.08230123    -0.12710
C808        C  0.42696640  0.80222235  0.09225610     0.00940
C809        C  0.40389104  0.81895624  0.09001594    -0.11240
C810        C  0.38056008  0.80941864  0.07787777     0.03430
C811        C  0.38135637  0.78456867  0.06450273    -0.10660
H812        H  0.44291656  0.76095690  0.08583695     0.09020
H813        H  0.40298500  0.83822098  0.10063049     0.06550
H814        H  0.36320795  0.77844376  0.05412588     0.06400
O815        O  0.29633115  0.82767388  0.21710131    -0.88040
C816        C  0.27721269  0.76434044  0.17006623     0.87990
Mg817      Mg  0.32036574  0.82334868  0.25205934     1.58150
O818        O  0.22419466  0.79727648  0.20439947    -0.87770
O819        O  0.26085651  0.84858402  0.19977405    -0.75100
C820        C  0.25295814  0.73044345  0.31171141     0.93040
O821        O  0.33251256  0.77297219  0.20630790    -0.74910
O822        O  0.27665921  0.74007914  0.31404792    -0.82420
Mg823      Mg  0.31401577  0.80922392  0.18250277     1.57960
C824        C  0.17369685  0.74379813  0.24229170     0.92960
O825        O  0.29623585  0.84536346  0.16040623    -0.80680
H826        H  0.20177387  0.82985033  0.21502421    -0.06020
C827        C  0.25937601  0.72814315  0.23450291     0.87900
O828        O  0.28218603  0.82747820  0.27754378    -0.75190
O829        O  0.27667795  0.78816634  0.17830719    -0.87950
O830        O  0.17962509  0.75740246  0.22186201    -0.80760
C831        C  0.20841546  0.76565395  0.14229273     0.93080
C832        C  0.28794894  0.84111501  0.13738877     0.92930
Mg833      Mg  0.22757664  0.76599775  0.26777953     1.57950
O834        O  0.24273807  0.72795846  0.28917539    -0.80690
O835        O  0.21062227  0.80371721  0.24514824    -0.74930
O836        O  0.22588559  0.78469740  0.14264558    -0.80770
O837        O  0.35228182  0.83326551  0.18564031    -0.82480
O838        O  0.31749100  0.78795264  0.30752098    -0.80800
C839        C  0.21174734  0.81104889  0.22104631     0.87370
O840        O  0.26493550  0.78670981  0.27327559    -0.87940
O841        O  0.24408917  0.74842079  0.23355373    -0.88050
O842        O  0.28016118  0.72754402  0.24940205    -0.75100
Mg843      Mg  0.24282919  0.81618481  0.17118264     1.57970
O844        O  0.19497089  0.75975788  0.16279812    -0.82480
H845        H  0.28562715  0.86601037  0.22693202    -0.06200
O846        O  0.31755248  0.77938603  0.24668090    -0.87750
H847        H  0.34218992  0.74807935  0.23715165    -0.06030
H848        H  0.24739910  0.81567847  0.29559481    -0.06200
C849        C  0.33124926  0.76611117  0.23054728     0.87350
C850        C  0.28126390  0.84809673  0.21524715     0.87930
C851        C  0.26407912  0.80994914  0.28287418     0.87980
H852        H  0.25496167  0.71052291  0.22243331    -0.06180
O853        O  0.25810211  0.74787567  0.17518854    -0.75210
Mg854      Mg  0.29849309  0.75889443  0.27856418     1.58000
H855        H  0.29428835  0.75720487  0.15852683    -0.06200
C856        C  0.35994886  0.83882490  0.20866210     0.92970
O857        O  0.34427352  0.81995057  0.29086622    -0.82440
C858        C  0.33357968  0.80790832  0.31065120     0.93030
O859        O  0.26339862  0.83456631  0.13434483    -0.82420
Mg860      Mg  0.21944153  0.75408950  0.19966878     1.58180
O861        O  0.35756572  0.82091520  0.22663203    -0.80760
O862        O  0.18931873  0.74339922  0.26200419    -0.82450
C863        C  0.37313361  0.68502808  0.99778442     0.00870
C864        C  0.35125860  0.66793383  0.99240898     0.00870
C865        C  0.38206038  0.69354546  0.02517031    -0.05160
C866        C  0.36322638  0.70512884  0.04274443    -0.32590
C867        C  0.37115380  0.72519904  0.06077595     0.36660
C868        C  0.39766701  0.73653662  0.05967538    -0.05520
C869        C  0.41743552  0.72193063  0.04545345    -0.32490
C870        C  0.40996405  0.69975871  0.02926680     0.36570
H871        H  0.34176579  0.70124464  0.04085965     0.16940
O872        O  0.35181297  0.73571725  0.07742453    -0.59980
H873        H  0.43818563  0.72913695  0.04493436     0.16950
O874        O  0.42955183  0.68769187  0.01385118    -0.60080
H875        H  0.43250617  0.66926806  0.02168030     0.43950
H876        H  0.35221772  0.72356469  0.09310536     0.43900
C877        C  0.30792280  0.83291234  0.11769898    -0.05160
C878        C  0.31948270  0.80706319  0.12132202    -0.32590
C879        C  0.34296283  0.79965751  0.10821622     0.36660
C880        C  0.35440848  0.81750951  0.08947272    -0.05520
C881        C  0.34239575  0.84327829  0.08486939    -0.32490
C882        C  0.31912894  0.85116022  0.09918120     0.36570
H883        H  0.31147900  0.79327864  0.13597744     0.16940
O884        O  0.35579280  0.77570905  0.11535989    -0.59980
H885        H  0.35157399  0.85746585  0.07107255     0.16950
O886        O  0.30847903  0.87699186  0.09604709    -0.60080
H887        H  0.29407641  0.87503146  0.08260691     0.43950
H888        H  0.36887825  0.78094503  0.12923681     0.43900
C889        C  0.23468544  0.72929103  0.33435519    -0.05160
C890        C  0.22158022  0.70486136  0.34137757    -0.32590
C891        C  0.19976916  0.70530437  0.35924370     0.36660
C892        C  0.19047550  0.73054431  0.36948517    -0.05520
C893        C  0.20395061  0.75474104  0.36239680    -0.32490
C894        C  0.22576605  0.75422684  0.34506786     0.36570
H895        H  0.22780401  0.68564389  0.33250346     0.16940
O896        O  0.18745927  0.68117506  0.36612519    -0.59980
H897        H  0.19673647  0.77449424  0.36931708     0.16950
O898        O  0.23674296  0.77856476  0.33687821    -0.60080
H899        H  0.22356809  0.78613428  0.32399891     0.43950
H900        H  0.19601871  0.67562042  0.38297385     0.43900
C901        C  0.11758122  0.67877264  0.24159704    -0.05160
C902        C  0.12257320  0.69305551  0.21819909    -0.32590
C903        C  0.13885717  0.71634184  0.21829478     0.36660
C904        C  0.15019364  0.72550999  0.24219657    -0.05520
C905        C  0.14317675  0.71241672  0.26582818    -0.32490
C906        C  0.12730267  0.68901770  0.26567113     0.36570
H907        H  0.11473747  0.68550000  0.19970466     0.16940
O908        O  0.14489410  0.72881977  0.19476362    -0.59980
H909        H  0.15171388  0.71902188  0.28437631     0.16950
O910        O  0.12370907  0.67476897  0.28877725    -0.60080
H911        H  0.11066849  0.68585674  0.29927428     0.43950
H912        H  0.15971979  0.71761201  0.18692243     0.43900
C913        C  0.28656833  0.64031815  0.04480707    -0.05160
C914        C  0.31379232  0.63463989  0.05171469    -0.32590
C915        C  0.33560315  0.64339063  0.03538925     0.36660
C916        C  0.33027087  0.65942310  0.01271018    -0.05520
C917        C  0.30291298  0.66471203  0.00627001    -0.32490
C918        C  0.28158536  0.65391467  0.02083613     0.36570
H919        H  0.31818024  0.62426920  0.07010990     0.16940
O920        O  0.36173842  0.63595541  0.04151848    -0.59980
H921        H  0.29780079  0.67676612  0.98903493     0.16950
O922        O  0.25550168  0.65860705  0.01240814    -0.60080
H923        H  0.25086812  0.64234287  0.00170277     0.43950
H924        H  0.36611463  0.64604848  0.05785759     0.43900
C925        C  0.22076761  0.69552526  0.09581887    -0.05160
C926        C  0.23868697  0.71783291  0.09379303    -0.32590
C927        C  0.23245363  0.74308040  0.10501957     0.36660
C928        C  0.20864275  0.74603140  0.12023473    -0.05520
C929        C  0.18912158  0.72515991  0.11947524    -0.32490
C930        C  0.19473232  0.70030575  0.10677924     0.36570
H931        H  0.25876835  0.71556759  0.08539412     0.16940
O932        O  0.25109817  0.76383815  0.10305063    -0.59980
H933        H  0.17025605  0.72732932  0.13033837     0.16950
O934        O  0.17508180  0.68052831  0.10642526    -0.60080
H935        H  0.16698058  0.68170390  0.08861671     0.43950
H936        H  0.26666117  0.75812478  0.11418281     0.43900
C937        C  0.37772842  0.92248380  0.22572311    -0.05160
C938        C  0.38477138  0.90151117  0.24364559    -0.32590
C939        C  0.37885155  0.87428544  0.23855374     0.36660
C940        C  0.36584537  0.86743959  0.21502468    -0.05520
C941        C  0.35762325  0.88841976  0.19755777    -0.32490
C942        C  0.36350061  0.91581856  0.20281504     0.36570
H943        H  0.39742015  0.90578067  0.26044334     0.16940
O944        O  0.38727085  0.85448247  0.25602134    -0.59980
H945        H  0.34711084  0.88358254  0.17947775     0.16950
O946        O  0.35728157  0.93560378  0.18453576    -0.60080
H947        H  0.33916030  0.94270146  0.18982683     0.43950
H948        H  0.40602428  0.84961354  0.25048287     0.43900
C949        C  0.32970745  0.85299262  0.38281912    -0.05160
C950        C  0.31300473  0.83012078  0.37863085    -0.32590
C951        C  0.31630504  0.81329641  0.35681592     0.36660
C952        C  0.33626055  0.81929236  0.33765400    -0.05520
C953        C  0.35546386  0.83950494  0.34341723    -0.32490
C954        C  0.35285113  0.85578040  0.36620964     0.36570
H955        H  0.29546169  0.82604045  0.39072963     0.16940
O956        O  0.29795442  0.79259129  0.35335687    -0.59980
H957        H  0.37193649  0.84345938  0.32976186     0.16950
O958        O  0.37320856  0.87379132  0.37226376    -0.60080
H959        H  0.37514482  0.88610334  0.35677856     0.43950
H960        H  0.28173672  0.80165695  0.34565334     0.43900
C961        C  0.04820305  0.68439812  0.36360850    -0.05160
C962        C  0.06531960  0.69950007  0.34696490    -0.32590
C963        C  0.08628808  0.71546168  0.35707652     0.36660
C964        C  0.09178535  0.71559060  0.38438989    -0.05520
C965        C  0.07434130  0.70095556  0.40125436    -0.32490
C966        C  0.05262227  0.68555069  0.39105482     0.36570
H967        H  0.06198213  0.69951299  0.32591226     0.16940
O968        O  0.10168191  0.73063012  0.33988742    -0.59980
H969        H  0.07816322  0.70061376  0.42223146     0.16950
O970        O  0.03618160  0.67129587  0.40801072    -0.60080
H971        H  0.04353073  0.65231428  0.40810746     0.43950
H972        H  0.09352414  0.74927261  0.34018409     0.43900
C973        C  0.03203312  0.65037335  0.32883256    -0.05160
C974        C  0.05019256  0.62823777  0.33202396    -0.32590
C975        C  0.06025970  0.61391485  0.30997332     0.36660
C976        C  0.05128806  0.62098051  0.28447501    -0.05520
C977        C  0.02978450  0.63984158  0.28206662    -0.32490
C978        C  0.02269241  0.65655729  0.30324523     0.36570
H979        H  0.05814335  0.62349058  0.35137280     0.16940
O980        O  0.08152010  0.59594152  0.31317505    -0.59980
H981        H  0.02335145  0.64624669  0.26258217     0.16950
O982        O  0.00978196  0.68094384  0.29800222    -0.60080
H983        H  0.02444150  0.69409792  0.29375577     0.43950
H984        H  0.07322483  0.57748157  0.31272400     0.43900
C985        C  0.80107288  0.70252717  0.10334161    -0.05160
C986        C  0.82527160  0.70998188  0.11579027    -0.32590
C987        C  0.82586487  0.73293823  0.13215690     0.36660
C988        C  0.80192526  0.74855994  0.13600697    -0.05520
C989        C  0.77941132  0.74378342  0.12006184    -0.32490
C990        C  0.77829389  0.72040010  0.10475016     0.36570
H991        H  0.84304879  0.69683537  0.11449032     0.16940
O992        O  0.84870296  0.73760047  0.14679909    -0.59980
H993        H  0.76102105  0.75590763  0.12238538     0.16950
O994        O  0.75368697  0.71371916  0.09396594    -0.60080
H995        H  0.74491673  0.70138184  0.10697576     0.43950
H996        H  0.85925585  0.75120399  0.13652466     0.43900
C997        C  0.67086770  0.72092424  0.17570850    -0.05160
C998        C  0.64471191  0.71883997  0.18683835    -0.32590
C999        C  0.62171378  0.71815761  0.17078340     0.36660
C1000       C  0.62491460  0.71909279  0.14332371    -0.05520
C1001       C  0.65121366  0.71675183  0.13248207    -0.32490
C1002       C  0.67406940  0.71774869  0.14838272     0.36570
H1003       H  0.64184579  0.72005009  0.20795462     0.16940
O1004       O  0.59625995  0.71778696  0.18192866    -0.59980
H1005       H  0.65446088  0.71721307  0.11139346     0.16950
O1006       O  0.69925783  0.71798777  0.13671285    -0.60080
H1007       H  0.70165536  0.73693775  0.12995527     0.43950
H1008       H  0.59455983  0.73501447  0.19215325     0.43900
C1009       C  0.94106504  0.63284232  0.30715289    -0.05160
C1010       C  0.95461685  0.61801147  0.32699075    -0.32590
C1011       C  0.97266328  0.63138723  0.34439461     0.36660
C1012       C  0.97605785  0.66021686  0.34315393    -0.05520
C1013       C  0.96135710  0.67493972  0.32426433    -0.32490
C1014       C  0.94582608  0.66149000  0.30541071     0.36570
H1015       H  0.95083090  0.59629422  0.32936233     0.16940
O1016       O  0.98617720  0.61638179  0.36316517    -0.59980
H1017       H  0.96395408  0.69692845  0.32253367     0.16950
O1018       O  0.93420436  0.67692576  0.28575195    -0.60080
H1019       H  0.94571828  0.67368261  0.27000406     0.43950
H1020       H  0.99959437  0.60506981  0.35337310     0.43900
C1021       C  0.86912731  0.66871446  0.26620938    -0.05160
C1022       C  0.87609601  0.67723351  0.24050670    -0.32590
C1023       C  0.87603877  0.70494122  0.23355236     0.36660
C1024       C  0.87026488  0.72488309  0.25265686    -0.05520
C1025       C  0.86423827  0.71648664  0.27853605    -0.32490
C1026       C  0.86232710  0.68873715  0.28504183     0.36570
H1027       H  0.88241720  0.66248411  0.22578323     0.16940
O1028       O  0.88216260  0.71239217  0.20816182    -0.59980
H1029       H  0.85870593  0.73138860  0.29339724     0.16950
O1030       O  0.85273801  0.68126119  0.30946137    -0.60080
H1031       H  0.86496240  0.68992205  0.32245800     0.43950
H1032       H  0.86552227  0.70858536  0.19788591     0.43900
C1033       C  0.97602389  0.75182867  0.39621538    -0.05160
C1034       C  0.96440632  0.72696568  0.40461847    -0.32590
C1035       C  0.97192204  0.70176924  0.39279526     0.36660
C1036       C  0.99123259  0.70109378  0.37216539    -0.05520
C1037       C  0.00278153  0.72607958  0.36408629    -0.32490
C1038       C  0.99601098  0.75087490  0.37631134     0.36570
H1039       H  0.94829416  0.72726374  0.41918397     0.16940
O1040       O  0.95983968  0.67802240  0.40114343    -0.59980
H1041       H  0.01646172  0.72665267  0.34739560     0.16950
O1042       O  0.00732193  0.77464300  0.36697061    -0.60080
H1043       H  0.02360276  0.77755978  0.37801901     0.43950
H1044       H  0.94276051  0.67682913  0.39093509     0.43900
C1045       C  0.90713794  0.81660355  0.37013425    -0.05160
C1046       C  0.90364131  0.83063488  0.34643047    -0.32590
C1047       C  0.87816724  0.83083280  0.33445474     0.36660
C1048       C  0.85623359  0.81720570  0.34666471    -0.05520
C1049       C  0.85939354  0.80544572  0.37152155    -0.32490
C1050       C  0.88477853  0.80480301  0.38318331     0.36570
H1051       H  0.92071694  0.84046272  0.33686487     0.16940
O1052       O  0.87495533  0.84356688  0.31052335    -0.59980
H1053       H  0.84282094  0.79454247  0.38087199     0.16950
O1054       O  0.88810650  0.79096230  0.40653681    -0.60080
H1055       H  0.87853264  0.80224670  0.41989931     0.43950
H1056       H  0.88370180  0.83119757  0.29750652     0.43900
C1057       C  0.64533079  0.87091441  0.25229681    -0.05160
C1058       C  0.64926674  0.84997282  0.23388793    -0.32590
C1059       C  0.65236784  0.82285495  0.24194651     0.36660
C1060       C  0.65275399  0.81639799  0.26909786    -0.05520
C1061       C  0.64905143  0.83742210  0.28755687    -0.32490
C1062       C  0.64488933  0.86442168  0.27937159     0.36570
H1063       H  0.64927165  0.85456325  0.21299751     0.16940
O1064       O  0.65517499  0.80291958  0.22307545    -0.59980
H1065       H  0.64955924  0.83293388  0.30845384     0.16950
O1066       O  0.63967559  0.88408787  0.29799552    -0.60080
H1067       H  0.61959489  0.88517091  0.29930495     0.43950
H1068       H  0.67238543  0.80700955  0.21367944     0.43900
C1069       C  0.75178499  0.86740823  0.38234342    -0.05160
C1070       C  0.77030244  0.84536730  0.38426005    -0.32590
C1071       C  0.76191820  0.81850478  0.38190481     0.36660
C1072       C  0.73585200  0.81281626  0.37240345    -0.05520
C1073       C  0.71687942  0.83430249  0.37022895    -0.32490
C1074       C  0.72440596  0.86140843  0.37603606     0.36570
H1075       H  0.79170725  0.84849305  0.38770611     0.16940
O1076       O  0.78016815  0.79782335  0.38718497    -0.59980
H1077       H  0.69652955  0.83029378  0.36324853     0.16950
O1078       O  0.70477937  0.88149918  0.37600658    -0.60080
H1079       H  0.69976338  0.88414753  0.35726904     0.43950
H1080       H  0.77684293  0.79275343  0.40582785     0.43900
C1081       C  0.74197429  0.96923144  0.37729145    -0.05160
C1082       C  0.71532617  0.97402012  0.38641707    -0.32590
C1083       C  0.69626174  0.98876991  0.37118297     0.36660
C1084       C  0.70349235  0.99930071  0.34626016    -0.05520
C1085       C  0.73052826  0.99587507  0.33774261    -0.32490
C1086       C  0.74949795  0.98073451  0.35281509     0.36570
H1087       H  0.70869628  0.96462098  0.40467159     0.16940
O1088       O  0.67026560  0.99200262  0.38047767    -0.59980
H1089       H  0.73682936  0.00427115  0.31898195     0.16950
O1090       O  0.77499973  0.97605641  0.34280353    -0.60080
H1091       H  0.77325755  0.95950981  0.33165686     0.43950
H1092       H  0.66043712  0.97544910  0.37459138     0.43900
C1093       C  0.66838125  0.99738626  0.30841768    -0.05160
C1094       C  0.64204809  0.98754413  0.31319001    -0.32590
C1095       C  0.62774546  0.97348069  0.29356944     0.36660
C1096       C  0.63947349  0.96954247  0.26852495    -0.05520
C1097       C  0.66522637  0.98066652  0.26341868    -0.32490
C1098       C  0.67968953  0.99433275  0.28311659     0.36570
H1099       H  0.63279393  0.99030612  0.33236941     0.16940
O1100       O  0.60298603  0.96227446  0.29949758    -0.59980
H1101       H  0.67491829  0.97714041  0.24453895     0.16950
O1102       O  0.70478299  0.00486962  0.27739675    -0.60080
H1103       H  0.71719108  0.98878709  0.27660666     0.43950
H1104       H  0.60712682  0.94378868  0.30669899     0.43900
C1105       C  0.69122385  0.05714719  0.35223127    -0.05160
C1106       C  0.68179313  0.06053414  0.37817313    -0.32590
C1107       C  0.69653205  0.07614417  0.39643556     0.36660
C1108       C  0.72152991  0.08798104  0.38920137    -0.05520
C1109       C  0.73155769  0.08333627  0.36365225    -0.32490
C1110       C  0.71663560  0.06817973  0.34529582     0.36570
H1111       H  0.66276494  0.05146512  0.38421482     0.16940
O1112       O  0.68577959  0.08074735  0.42097173    -0.59980
H1113       H  0.75027469  0.09298453  0.35740830     0.16950
O1114       O  0.72689545  0.06457209  0.32041406    -0.60080
H1115       H  0.71907156  0.07978334  0.30981769     0.43950
H1116       H  0.67399751  0.09719295  0.41896412     0.43900
C1117       C  0.73971930  0.22829364  0.35401458    -0.05160
C1118       C  0.71396998  0.21772623  0.36015382    -0.32590
C1119       C  0.71116101  0.19720264  0.37914463     0.36660
C1120       C  0.73433736  0.18734363  0.39218102    -0.05520
C1121       C  0.75956388  0.20014407  0.38789357    -0.32490
C1122       C  0.76234902  0.22053837  0.36896295     0.36570
H1123       H  0.69632584  0.22401418  0.34888883     0.16940
O1124       O  0.68603539  0.18633130  0.38430025    -0.59980
H1125       H  0.77779787  0.19269704  0.39750507     0.16950
O1126       O  0.78770944  0.23058781  0.36338325    -0.60080
H1127       H  0.79585044  0.21744086  0.35070588     0.43950
H1128       H  0.68059535  0.17675272  0.36797095     0.43900
C1129       C  0.61294350  0.07997535  0.28443345    -0.05160
C1130       C  0.60795109  0.07270809  0.31093537    -0.32590
C1131       C  0.62789764  0.05978071  0.32655064     0.36660
C1132       C  0.65382988  0.05390909  0.31612111    -0.05520
C1133       C  0.65824514  0.05929549  0.28914880    -0.32490
C1134       C  0.63800198  0.07169572  0.27332141     0.36570
H1135       H  0.58907054  0.07902738  0.32018540     0.16940
O1136       O  0.62206469  0.05393312  0.35234171    -0.59980
H1137       H  0.67775490  0.05440507  0.28041340     0.16950
O1138       O  0.64377561  0.07746040  0.24750462    -0.60080
H1139       H  0.63708309  0.06143741  0.23753848     0.43950
H1140       H  0.61477265  0.03503459  0.35223926     0.43900
C1141       C  0.61591442  0.17193909  0.27183020    -0.05160
C1142       C  0.61548348  0.19881410  0.28147346    -0.32590
C1143       C  0.63564653  0.21729194  0.27354988     0.36660
C1144       C  0.65538121  0.20895129  0.25505550    -0.05520
C1145       C  0.65567640  0.18230642  0.24555508    -0.32490
C1146       C  0.63667348  0.16367555  0.25420930     0.36570
H1147       H  0.59947137  0.20544513  0.29471164     0.16940
O1148       O  0.63567141  0.24338601  0.28350311    -0.59980
H1149       H  0.67121075  0.17561766  0.23176088     0.16950
O1150       O  0.63773511  0.13766945  0.24415448    -0.60080
H1151       H  0.65319477  0.12870076  0.25329713     0.43950
H1152       H  0.62525428  0.25457024  0.27064721     0.43900
C1153       C  0.73362003  0.40293930  0.13000889    -0.05160
C1154       C  0.73587730  0.38224329  0.11070170    -0.32590
C1155       C  0.75076817  0.35838425  0.11554828     0.36660
C1156       C  0.76440044  0.35556572  0.13947456    -0.05520
C1157       C  0.76063653  0.37514600  0.15938023    -0.32490
C1158       C  0.74436964  0.39812015  0.15516867     0.36570
H1159       H  0.72812380  0.38535770  0.09099175     0.16940
O1160       O  0.75413922  0.33925542  0.09602120    -0.59980
H1161       H  0.77032327  0.37262297  0.17834315     0.16950
O1162       O  0.74091763  0.41681145  0.17504391    -0.60080
H1163       H  0.72277543  0.41282595  0.18261465     0.43950
H1164       H  0.73572333  0.33221144  0.09222742     0.43900
C1165       C  0.64044408  0.27861304  0.13843628    -0.05160
C1166       C  0.66270500  0.29593289  0.14218884    -0.32590
C1167       C  0.68862295  0.28499050  0.14526708     0.36660
C1168       C  0.69220219  0.25648624  0.14765690    -0.05520
C1169       C  0.66971541  0.23933456  0.14768532    -0.32490
C1170       C  0.64399490  0.24993396  0.14241003     0.36570
H1171       H  0.66048506  0.31797031  0.14034359     0.16940
O1172       O  0.71032124  0.30235657  0.14546335    -0.59980
H1173       H  0.67233078  0.21739624  0.15024922     0.16950
O1174       O  0.62334810  0.23166715  0.13847002    -0.60080
H1175       H  0.61737982  0.22603244  0.15634562     0.43950
H1176       H  0.71431155  0.30609574  0.12666986     0.43900
C1177       C  0.83447062  0.33452428  0.34312193    -0.05160
C1178       C  0.82174385  0.33208935  0.36795062    -0.32590
C1179       C  0.83720057  0.33034596  0.39103086     0.36660
C1180       C  0.86566712  0.33151146  0.38935530    -0.05520
C1181       C  0.87758794  0.33903850  0.36504008    -0.32490
C1182       C  0.86225666  0.34073920  0.34215977     0.36570
H1183       H  0.80004860  0.32881949  0.36938521     0.16940
O1184       O  0.82455573  0.32630597  0.41486251    -0.59980
H1185       H  0.89938991  0.34061871  0.36279840     0.16950
O1186       O  0.87539414  0.34508314  0.31867796    -0.60080
H1187       H  0.87428534  0.36515955  0.31567315     0.43950
H1188       H  0.81454801  0.30879481  0.41330550     0.43900
C1189       C  0.93290616  0.36811997  0.18265005    -0.05160
C1190       C  0.93822929  0.34285374  0.19546636    -0.32590
C1191       C  0.91631213  0.32873015  0.20664785     0.36660
C1192       C  0.88987558  0.33658653  0.19952323    -0.05520
C1193       C  0.88664969  0.35414844  0.17756691    -0.32490
C1194       C  0.90885150  0.36853692  0.16781381     0.36570
H1195       H  0.95857971  0.33758100  0.20179804     0.16940
O1196       O  0.92085065  0.30857316  0.22500156    -0.59980
H1197       H  0.86688465  0.35810534  0.16899470     0.16950
O1198       O  0.90554665  0.38577151  0.14668519    -0.60080
H1199       H  0.91483660  0.37643819  0.13184048     0.43950
H1200       H  0.92090195  0.29119603  0.21492776     0.43900
C1201       C  0.68020975  0.40610131  0.01605449    -0.05160
C1202       C  0.66620252  0.42725493  0.02921442    -0.32590
C1203       C  0.67951361  0.44436600  0.04744750     0.36660
C1204       C  0.70756926  0.44107085  0.05268648    -0.05520
C1205       C  0.72156760  0.42017843  0.03928257    -0.32490
C1206       C  0.70824574  0.40269918  0.02156513     0.36570
H1207       H  0.64494689  0.43089851  0.02493273     0.16940
O1208       O  0.66463080  0.46356274  0.06098265    -0.59980
H1209       H  0.74266915  0.41608566  0.04398070     0.16950
O1210       O  0.72295820  0.38219374  0.00967789    -0.60080
H1211       H  0.72777130  0.36910218  0.02392405     0.43950
H1212       H  0.66655222  0.48074711  0.05067355     0.43900
C1213       C  0.63753186  0.35945728  0.01805779    -0.05160
C1214       C  0.60916636  0.35837079  0.02266579    -0.32590
C1215       C  0.59767338  0.34057983  0.04176859     0.36660
C1216       C  0.61437167  0.32267857  0.05648553    -0.05520
C1217       C  0.64265493  0.32337529  0.05115808    -0.32490
C1218       C  0.65418158  0.34177530  0.03292770     0.36570
H1219       H  0.59572694  0.37104458  0.01087947     0.16940
O1220       O  0.57023347  0.34146371  0.04631459    -0.59980
H1221       H  0.65629302  0.30951527  0.06141335     0.16950
O1222       O  0.68179066  0.34161445  0.02906160    -0.60080
H1223       H  0.68669107  0.32282448  0.02325910     0.43950
H1224       H  0.56221660  0.32960653  0.03260398     0.43900
C1225       C  0.98376599  0.34812835  0.35487769    -0.05160
C1226       C  0.98375586  0.35586190  0.38148706    -0.32590
C1227       C  0.96963124  0.34057477  0.40051042     0.36660
C1228       C  0.95486289  0.31715563  0.39314151    -0.05520
C1229       C  0.95567591  0.30889260  0.36664622    -0.32490
C1230       C  0.96996021  0.32412343  0.34764859     0.36570
H1231       H  0.99446876  0.37409379  0.38746487     0.16940
O1232       O  0.96924096  0.34931824  0.42615724    -0.59980
H1233       H  0.94355561  0.29168293  0.36030296     0.16950
O1234       O  0.96976193  0.31572566  0.32193332    -0.60080
H1235       H  0.98546122  0.30300889  0.32024778     0.43950
H1236       H  0.95725175  0.36574185  0.42636817     0.43900
C1237       C  0.98817368  0.37706802  0.31191047    -0.05160
C1238       C  0.96706358  0.39669051  0.31460542    -0.32590
C1239       C  0.95570881  0.41011297  0.29223701     0.36660
C1240       C  0.96658074  0.40528545  0.26681432    -0.05520
C1241       C  0.98926402  0.38748017  0.26513706    -0.32490
C1242       C  0.99738279  0.37125869  0.28632460     0.36570
H1243       H  0.95897176  0.40116125  0.33397715     0.16940
O1244       O  0.93338044  0.42669840  0.29540322    -0.59980
H1245       H  0.99898075  0.38356873  0.24634405     0.16950
O1246       O  0.01337840  0.34873361  0.28143865    -0.60080
H1247       H  0.00054745  0.33372627  0.27749039     0.43950
H1248       H  0.94072086  0.44477501  0.30057171     0.43900
C1249       C  0.08008090  0.39624232  0.27659752    -0.05160
C1250       C  0.06425484  0.41383333  0.29244235    -0.32590
C1251       C  0.04805255  0.40327473  0.31316658     0.36660
C1252       C  0.04807331  0.37482544  0.31876358    -0.05520
C1253       C  0.06449542  0.35757212  0.30339800    -0.32490
C1254       C  0.07919806  0.36773277  0.28195154     0.36570
H1255       H  0.06484001  0.43577170  0.28915305     0.16940
O1256       O  0.03296278  0.42089927  0.32840194    -0.59980
H1257       H  0.06437784  0.33564022  0.30680761     0.16950
O1258       O  0.09260608  0.34935802  0.26607588    -0.60080
H1259       H  0.08001131  0.34584838  0.25129397     0.43950
H1260       H  0.01869473  0.42838828  0.31661757     0.43900
C1261       C  0.17527296  0.40127139  0.24600397    -0.05160
C1262       C  0.18348453  0.41046555  0.27087444    -0.32590
C1263       C  0.21085082  0.41070225  0.27770741     0.36660
C1264       C  0.23059174  0.40224794  0.25933848    -0.05520
C1265       C  0.22256308  0.39567271  0.23358979    -0.32490
C1266       C  0.19508692  0.39440344  0.22708160     0.36570
H1267       H  0.16859886  0.41731214  0.28521609     0.16940
O1268       O  0.21815180  0.41830290  0.30267790    -0.59980
H1269       H  0.23736671  0.38860432  0.21926716     0.16950
O1270       O  0.18780209  0.38543183  0.20255217    -0.60080
H1271       H  0.18492903  0.36542375  0.20457536     0.43950
H1272       H  0.21253779  0.40293207  0.31428189     0.43900
C1273       C  0.04154103  0.34369860  0.35920779    -0.05160
C1274       C  0.04325965  0.31510942  0.35562586    -0.32590
C1275       C  0.05793717  0.29836288  0.37332197     0.36660
C1276       C  0.07085911  0.31002402  0.39530410    -0.05520
C1277       C  0.06620629  0.33811483  0.40038027    -0.32490
C1278       C  0.05231880  0.35496081  0.38230409     0.36570
H1279       H  0.03465693  0.30601382  0.33814589     0.16940
O1280       O  0.06223225  0.27132159  0.36721500    -0.59980
H1281       H  0.07623865  0.34770132  0.41688453     0.16950
O1282       O  0.05117353  0.38275907  0.38632769    -0.60080
H1283       H  0.03976756  0.38535734  0.40225805     0.43950
H1284       H  0.04796431  0.26121050  0.37697298     0.43900
C1285       C  0.21928076  0.33204906  0.37139103    -0.05160
C1286       C  0.21926487  0.32138636  0.39694262    -0.32590
C1287       C  0.19489096  0.31341350  0.40878772     0.36660
C1288       C  0.17043219  0.31518241  0.39440566    -0.05520
C1289       C  0.17033971  0.32884032  0.37003626    -0.32490
C1290       C  0.19458099  0.33753335  0.35863830     0.36570
H1291       H  0.23830387  0.31727865  0.40688877     0.16940
O1292       O  0.19516283  0.30331273  0.43406136    -0.59980
H1293       H  0.15189820  0.33069595  0.35860262     0.16950
O1294       O  0.19427425  0.34831257  0.33365111    -0.60080
H1295       H  0.18996882  0.33270195  0.32197910     0.43950
H1296       H  0.20640572  0.28635797  0.43350979     0.43900
C1297       C  0.21504115  0.19991165  0.34456501    -0.05160
C1298       C  0.20727609  0.17543110  0.33208764    -0.32590
C1299       C  0.21347333  0.15004947  0.34332424     0.36660
C1300       C  0.22739945  0.14915899  0.36722393    -0.05520
C1301       C  0.23364440  0.17345537  0.38049988    -0.32490
C1302       C  0.22738348  0.19879994  0.36945090     0.36570
H1303       H  0.19763093  0.17597918  0.31295173     0.16940
O1304       O  0.20597120  0.12637380  0.33089890    -0.59980
H1305       H  0.24382713  0.17266607  0.39938327     0.16950
O1306       O  0.23560247  0.22214306  0.38203856    -0.60080
H1307       H  0.22015060  0.22738906  0.39358135     0.43950
H1308       H  0.22167746  0.12135541  0.31959037     0.43900
C1309       C  0.34773790  0.14110417  0.24822258    -0.05160
C1310       C  0.33595135  0.14831649  0.27248384    -0.32590
C1311       C  0.30915704  0.15736834  0.27399955     0.36660
C1312       C  0.29379251  0.16010317  0.25083081    -0.05520
C1313       C  0.30502040  0.15125579  0.22675901    -0.32490
C1314       C  0.33185684  0.14180387  0.22535463     0.36570
H1315       H  0.34783251  0.14749675  0.29039719     0.16940
O1316       O  0.29899707  0.16562172  0.29792055    -0.59980
H1317       H  0.29355057  0.15349852  0.20870469     0.16950
O1318       O  0.34222395  0.13296448  0.20174533    -0.60080
H1319       H  0.34742685  0.14985252  0.19210650     0.43950
H1320       H  0.30640693  0.18423343  0.30080897     0.43900
C1321       C  0.34329982  0.21949365  0.10495465    -0.05160
C1322       C  0.34983917  0.21291475  0.13111213    -0.32590
C1323       C  0.33092782  0.21719745  0.15098366     0.36660
C1324       C  0.30542023  0.22838470  0.14472514    -0.05520
C1325       C  0.29706243  0.23016184  0.11857019    -0.32490
C1326       C  0.31585562  0.22486363  0.09841449     0.36570
H1327       H  0.37051206  0.20822374  0.13685230     0.16940
O1328       O  0.33890651  0.21428492  0.17671610    -0.59980
H1329       H  0.27686350  0.23755316  0.11381788     0.16950
O1330       O  0.30815857  0.22733227  0.07251872    -0.60080
H1331       H  0.29998152  0.24587650  0.07055690     0.43950
H1332       H  0.32990920  0.19736716  0.18306501     0.43900
C1333       C  0.32144028  0.41401466  0.14018985    -0.05160
C1334       C  0.32699434  0.38741028  0.13078325    -0.32590
C1335       C  0.33257620  0.36596541  0.14806951     0.36660
C1336       C  0.33179527  0.37081290  0.17533132    -0.05520
C1337       C  0.33056015  0.39808250  0.18440493    -0.32490
C1338       C  0.32532163  0.41965210  0.16698390     0.36570
H1339       H  0.32441677  0.38243170  0.11018526     0.16940
O1340       O  0.33500254  0.33992362  0.13817365    -0.59980
H1341       H  0.33087224  0.40245854  0.20529359     0.16950
O1342       O  0.32175665  0.44565598  0.17663886    -0.60080
H1343       H  0.33928272  0.45500188  0.17341894     0.43950
H1344       H  0.35478647  0.33695489  0.13570043     0.43900
C1345       C  0.39052094  0.99016540  0.34126699    -0.05160
C1346       C  0.38056263  0.96517147  0.33175805    -0.32590
C1347       C  0.39234033  0.95233249  0.30994771     0.36660
C1348       C  0.41400350  0.96491559  0.29625653    -0.05520
C1349       C  0.42735453  0.98668190  0.30868569    -0.32490
C1350       C  0.41634342  0.99863699  0.33188114     0.36570
H1351       H  0.36215562  0.95638840  0.33972244     0.16940
O1352       O  0.38131159  0.92833627  0.30099354    -0.59980
H1353       H  0.44505102  0.99568957  0.29945919     0.16950
O1354       O  0.43011019  0.01905413  0.34469501    -0.60080
H1355       H  0.43752377  0.03147662  0.33098060     0.43950
H1356       H  0.36236608  0.93276608  0.29581931     0.43900
C1357       C  0.35319396  0.99258871  0.37642830    -0.05160
C1358       C  0.32615081  0.98741942  0.36910609    -0.32590
C1359       C  0.31072758  0.96759818  0.38230330     0.36660
C1360       C  0.32239851  0.95238165  0.40294477    -0.05520
C1361       C  0.34847446  0.95932080  0.41181164    -0.32490
C1362       C  0.36392378  0.97910417  0.39857457     0.36570
H1363       H  0.31782971  0.99686903  0.35160485     0.16940
O1364       O  0.28573738  0.96070795  0.37262521    -0.59980
H1365       H  0.35790349  0.94740318  0.42737549     0.16950
O1366       O  0.39015076  0.98378213  0.40627780    -0.60080
H1367       H  0.40120889  0.96948170  0.39735255     0.43950
H1368       H  0.27254647  0.97156235  0.38315117     0.43900
C1369       C  0.34172283  0.04939989  0.36391559    -0.05160
C1370       C  0.33967192  0.05580292  0.39092804    -0.32590
C1371       C  0.31593113  0.06831941  0.40153845     0.36660
C1372       C  0.29338822  0.07422771  0.38519015    -0.05520
C1373       C  0.29545514  0.06659204  0.35843996    -0.32490
C1374       C  0.31918941  0.05503408  0.34780969     0.36570
H1375       H  0.35668601  0.05142261  0.40375821     0.16940
O1376       O  0.31564657  0.07588637  0.42748335    -0.59980
H1377       H  0.27850904  0.06999820  0.34526499     0.16950
O1378       O  0.32010550  0.04920527  0.32141566    -0.60080
H1379       H  0.30966570  0.03204861  0.31930357     0.43950
H1380       H  0.31266369  0.05865084  0.43746772     0.43900
C1381       C  0.38148752  0.04968865  0.33086325    -0.05160
C1382       C  0.38104806  0.03985946  0.30487101    -0.32590
C1383       C  0.39573495  0.05290101  0.28478506     0.36660
C1384       C  0.40939662  0.07767888  0.28977006    -0.05520
C1385       C  0.41087331  0.08683829  0.31598741    -0.32490
C1386       C  0.39711820  0.07305477  0.33638550     0.36570
H1387       H  0.36908324  0.02200020  0.30009222     0.16940
O1388       O  0.39323763  0.04362068  0.25946945    -0.59980
H1389       H  0.42031994  0.10633356  0.32020112     0.16950
O1390       O  0.39814196  0.08325593  0.36147005    -0.60080
H1391       H  0.41284767  0.07273300  0.37027118     0.43950
H1392       H  0.40774393  0.02957358  0.25745388     0.43900
C1393       C  0.37558443  0.29408359  0.04740224    -0.05160
C1394       C  0.39172279  0.31781659  0.04509407    -0.32590
C1395       C  0.38175488  0.34147641  0.03179139     0.36660
C1396       C  0.35473880  0.34232362  0.02245349    -0.05520
C1397       C  0.33859728  0.31935289  0.02623285    -0.32490
C1398       C  0.34948788  0.29488053  0.03555732     0.36570
H1399       H  0.41185378  0.31814258  0.05355974     0.16940
O1400       O  0.39824814  0.36377786  0.02866424    -0.59980
H1401       H  0.31759496  0.31975624  0.02032316     0.16950
O1402       O  0.33421960  0.27164143  0.03266394    -0.60080
H1403       H  0.34166797  0.26242846  0.01680934     0.43950
H1404       H  0.40620078  0.36181084  0.01080745     0.43900
C1405       C  0.32865505  0.38816049  0.02055728    -0.05160
C1406       C  0.34169528  0.41322873  0.02467496    -0.32590
C1407       C  0.32889468  0.43424290  0.03901560     0.36660
C1408       C  0.30304278  0.42994761  0.05040286    -0.05520
C1409       C  0.28894896  0.40599853  0.04385162    -0.32490
C1410       C  0.30148605  0.38528209  0.02891554     0.36570
H1411       H  0.36224148  0.41615712  0.01757069     0.16940
O1412       O  0.34275688  0.45796538  0.04410070    -0.59980
H1413       H  0.26928466  0.40202102  0.05266565     0.16950
O1414       O  0.28760004  0.36158601  0.02406235    -0.60080
H1415       H  0.27498529  0.36617521  0.00951491     0.43950
H1416       H  0.35738813  0.45276032  0.05655996     0.43900
C1417       C  0.03766397  0.38493249  0.67680119    -0.05160
C1418       C  0.04759542  0.37386220  0.70044461    -0.32590
C1419       C  0.06020014  0.39059833  0.71920601     0.36660
C1420       C  0.06345713  0.41894215  0.71451858    -0.05520
C1421       C  0.05359074  0.43000019  0.69081544    -0.32490
C1422       C  0.04059783  0.41332583  0.67217052     0.36570
H1423       H  0.04501610  0.35224249  0.70464287     0.16940
O1424       O  0.07015483  0.37894037  0.74184117    -0.59980
H1425       H  0.05720788  0.45136280  0.68613813     0.16950
O1426       O  0.03181563  0.42463699  0.64891357    -0.60080
H1427       H  0.01651711  0.43698358  0.65371318     0.43950
H1428       H  0.08806681  0.37104693  0.73690005     0.43900
C1429       C  0.16007302  0.42550226  0.73452194    -0.05160
C1430       C  0.17342018  0.42089009  0.71063159    -0.32590
C1431       C  0.19782392  0.40622553  0.71021537     0.36660
C1432       C  0.20908106  0.39652268  0.73403727    -0.05520
C1433       C  0.19626915  0.40253843  0.75796950    -0.32490
C1434       C  0.17173683  0.41650961  0.75835198     0.36570
H1435       H  0.16453582  0.42796708  0.69232352     0.16940
O1436       O  0.21023312  0.40106687  0.68650783    -0.59980
H1437       H  0.20414534  0.39462989  0.77640938     0.16950
O1438       O  0.15807368  0.41911086  0.78185617    -0.60080
H1439       H  0.16802569  0.43327964  0.79184792     0.43950
H1440       H  0.19980058  0.38586711  0.67857243     0.43900
C1441       C  0.06060405  0.29964367  0.61764774    -0.05160
C1442       C  0.04363075  0.29473702  0.63949936    -0.32590
C1443       C  0.03014572  0.31642014  0.65268657     0.36660
C1444       C  0.03374747  0.34385222  0.64445411    -0.05520
C1445       C  0.04974691  0.34871183  0.62198742    -0.32490
C1446       C  0.06300262  0.32702304  0.60868769     0.36570
H1447       H  0.04249880  0.27422821  0.64768125     0.16940
O1448       O  0.01526250  0.31087029  0.67493576    -0.59980
H1449       H  0.05260827  0.36955588  0.61513693     0.16950
O1450       O  0.07996079  0.33298506  0.58799953    -0.60080
H1451       H  0.09739631  0.33840993  0.59612740     0.43950
H1452       H  0.99996473  0.29930324  0.66905709     0.43900
C1453       C  0.20660837  0.30671736  0.64042391    -0.05160
C1454       C  0.18542845  0.30784823  0.65892080    -0.32590
C1455       C  0.16085418  0.29448355  0.65418068     0.36660
C1456       C  0.15701558  0.28070689  0.63012121    -0.05520
C1457       C  0.17821319  0.28040660  0.61149022    -0.32490
C1458       C  0.20296867  0.29267879  0.61675978     0.36570
H1459       H  0.18857629  0.31758182  0.67776995     0.16940
O1460       O  0.14157367  0.29332861  0.67374966    -0.59980
H1461       H  0.17578402  0.27056396  0.59265683     0.16950
O1462       O  0.22373990  0.29056184  0.59879582    -0.60080
H1463       H  0.23181000  0.27211332  0.60173368     0.43950
H1464       H  0.13561060  0.31254953  0.67670457     0.43900
C1465       C  0.31837512  0.14820734  0.74857141    -0.05160
C1466       C  0.34433935  0.14968550  0.73777872    -0.32590
C1467       C  0.36521214  0.13444729  0.74865917     0.36660
C1468       C  0.35984659  0.11644519  0.76984934    -0.05520
C1469       C  0.33352622  0.11373867  0.77974451    -0.32490
C1470       C  0.31277885  0.13018568  0.76955843     0.36570
H1471       H  0.34889229  0.16418720  0.72216232     0.16940
O1472       O  0.39077199  0.13661404  0.73800943    -0.59980
H1473       H  0.32920890  0.09913517  0.79529291     0.16950
O1474       O  0.28717679  0.12878692  0.78017602    -0.60080
H1475       H  0.28780388  0.14012644  0.79632660     0.43950
H1476       H  0.39923662  0.15219211  0.74732666     0.43900
C1477       C  0.21871099  0.18166881  0.65651844    -0.05160
C1478       C  0.21644907  0.15902378  0.67366404    -0.32590
C1479       C  0.21237765  0.13279300  0.66372067     0.36660
C1480       C  0.20978835  0.12940123  0.63650884    -0.05520
C1481       C  0.20665032  0.15280552  0.62028308    -0.32490
C1482       C  0.21135136  0.17893721  0.63011068     0.36570
H1483       H  0.22057767  0.16122248  0.69449157     0.16940
O1484       O  0.21299572  0.11045568  0.68026218    -0.59980
H1485       H  0.20395297  0.15081880  0.59929721     0.16950
O1486       O  0.21251122  0.20078243  0.61307186    -0.60080
H1487       H  0.19378175  0.20836019  0.61264651     0.43950
H1488       H  0.23155106  0.10985450  0.68780191     0.43900
C1489       C  0.29762472  0.42756875  0.93750934    -0.05160
C1490       C  0.28576202  0.40184059  0.94160937    -0.32590
C1491       C  0.29990183  0.38082485  0.95476429     0.36660
C1492       C  0.32639231  0.38529478  0.96434152    -0.05520
C1493       C  0.33761659  0.41151897  0.96153136    -0.32490
C1494       C  0.32333590  0.43260998  0.94868750     0.36570
H1495       H  0.26637392  0.39723084  0.93267547     0.16940
O1496       O  0.28761600  0.35593602  0.95784013    -0.59980
H1497       H  0.35777813  0.41552672  0.96898134     0.16950
O1498       O  0.33570392  0.45744215  0.94500266    -0.60080
H1499       H  0.32937005  0.46895388  0.95988327     0.43950
H1500       H  0.28906014  0.34695926  0.94039497     0.43900
C1501       C  0.30007117  0.41894145  0.85342549    -0.05160
C1502       C  0.28235128  0.39748373  0.85998342    -0.32590
C1503       C  0.28528105  0.37183646  0.84861166     0.36660
C1504       C  0.30610590  0.36723095  0.83025908    -0.05520
C1505       C  0.32450133  0.38826089  0.82420825    -0.32490
C1506       C  0.32196952  0.41397695  0.83631130     0.36570
H1507       H  0.26591578  0.40077797  0.87389823     0.16940
O1508       O  0.26655570  0.35187023  0.85417429    -0.59980
H1509       H  0.34005724  0.38504036  0.80938911     0.16950
O1510       O  0.34018601  0.43427966  0.83058455    -0.60080
H1511       H  0.35459964  0.43237180  0.84406392     0.43950
H1512       H  0.25111091  0.35555707  0.84215222     0.43900
C1513       C  0.37918272  0.29249170  0.94225068    -0.05160
C1514       C  0.35425616  0.29090735  0.95596742    -0.32590
C1515       C  0.34078560  0.31410696  0.96553368     0.36660
C1516       C  0.35381935  0.33963211  0.96526578    -0.05520
C1517       C  0.37958073  0.34147471  0.95317156    -0.32490
C1518       C  0.39201753  0.31833746  0.94118867     0.36570
H1519       H  0.34413293  0.27140249  0.95832252     0.16940
O1520       O  0.31426684  0.31201923  0.97391162    -0.59980
H1521       H  0.38991894  0.36100690  0.95272664     0.16950
O1522       O  0.41594917  0.32161407  0.92775430    -0.60080
H1523       H  0.43017388  0.32223191  0.94150583     0.43950
H1524       H  0.31202276  0.29387920  0.98253161     0.43900
C1525       C  0.35030040  0.21059252  0.89319546    -0.05160
C1526       C  0.35641111  0.20133857  0.86767277    -0.32590
C1527       C  0.33725476  0.20387874  0.84780847     0.36660
C1528       C  0.31197375  0.21607418  0.85343080    -0.05520
C1529       C  0.30391140  0.21996932  0.87951123    -0.32490
C1530       C  0.32281070  0.21592687  0.89976393     0.36570
H1531       H  0.37694726  0.19604212  0.86190125     0.16940
O1532       O  0.34499153  0.19869479  0.82230861    -0.59980
H1533       H  0.28380496  0.22785240  0.88397808     0.16950
O1534       O  0.31525310  0.21982737  0.92558577    -0.60080
H1535       H  0.30595193  0.23792025  0.92644698     0.43950
H1536       H  0.33976554  0.17939507  0.81908249     0.43900
C1537       C  0.40426031  0.06076792  0.71811671    -0.05160
C1538       C  0.40505278  0.07707888  0.69515959    -0.32590
C1539       C  0.39168749  0.06888207  0.67182048     0.36660
C1540       C  0.37671039  0.04425440  0.67111655    -0.05520
C1541       C  0.37552098  0.02838738  0.69425704    -0.32490
C1542       C  0.38994820  0.03571392  0.71690655     0.36570
H1543       H  0.41466319  0.09697778  0.69576617     0.16940
O1544       O  0.39298278  0.08535809  0.64995186    -0.59980
H1545       H  0.36373285  0.00971052  0.69456849     0.16950
O1546       O  0.38723538  0.01974516  0.73903354    -0.60080
H1547       H  0.40600649  0.01522846  0.74470042     0.43950
H1548       H  0.40861751  0.07826699  0.63961301     0.43900
C1549       C  0.33841977  0.04795509  0.63627982    -0.05160
C1550       C  0.31519205  0.04691407  0.65219430    -0.32590
C1551       C  0.28974459  0.05538733  0.64281280     0.36660
C1552       C  0.28690364  0.06764517  0.61752991    -0.05520
C1553       C  0.31038297  0.06912630  0.60158163    -0.32490
C1554       C  0.33579626  0.05894846  0.61060106     0.36570
H1555       H  0.31643378  0.03763736  0.67157156     0.16940
O1556       O  0.26750476  0.05080161  0.65852430    -0.59980
H1557       H  0.30919067  0.07835736  0.58221411     0.16950
O1558       O  0.35807873  0.06034676  0.59441125    -0.60080
H1559       H  0.35591924  0.04514854  0.58169380     0.43950
H1560       H  0.25991672  0.03317530  0.65235981     0.43900
C1561       C  0.18940738  0.74478878  0.63383244    -0.05160
C1562       C  0.20703267  0.76724083  0.63651183    -0.32590
C1563       C  0.23270057  0.76416558  0.64763254     0.36660
C1564       C  0.24058035  0.73871812  0.65803786    -0.05520
C1565       C  0.22344110  0.71601933  0.65507031    -0.32490
C1566       C  0.19837680  0.71871352  0.64229461     0.36570
H1567       H  0.20078805  0.78761558  0.63038385     0.16940
O1568       O  0.24929138  0.78656584  0.64992684    -0.59980
H1569       H  0.22906620  0.69641665  0.66363231     0.16950
O1570       O  0.18270329  0.69590054  0.63874172    -0.60080
H1571       H  0.18699137  0.68951035  0.62068401     0.43950
H1572       H  0.23878132  0.80030226  0.66013772     0.43900
C1573       C  0.12650942  0.67980280  0.74459176    -0.05160
C1574       C  0.13830528  0.68693044  0.72042340    -0.32590
C1575       C  0.15162568  0.71167788  0.71762112     0.36660
C1576       C  0.15428360  0.72893245  0.73964496    -0.05520
C1577       C  0.13941812  0.72340009  0.76265190    -0.32490
C1578       C  0.12547242  0.69891138  0.76518353     0.36570
H1579       H  0.13833850  0.67272277  0.70406325     0.16940
O1580       O  0.16423501  0.71734818  0.69414347    -0.59980
H1581       H  0.14050140  0.73682183  0.77956119     0.16950
O1582       O  0.11204940  0.69328391  0.78826008    -0.60080
H1583       H  0.09272109  0.69771076  0.78469343     0.43950
H1584       H  0.15477118  0.73381863  0.68713711     0.43900
C1585       C  0.35410023  0.99449085  0.61531377    -0.05160
C1586       C  0.32709137  0.98732717  0.62125234    -0.32590
C1587       C  0.31287911  0.96849672  0.60579833     0.36660
C1588       C  0.32589261  0.95542721  0.58450184    -0.05520
C1589       C  0.35198351  0.96434242  0.57711856    -0.32490
C1590       C  0.36608757  0.98355817  0.59240276     0.36570
H1591       H  0.31781656  0.99413620  0.63941591     0.16940
O1592       O  0.28788960  0.95976442  0.61422043    -0.59980
H1593       H  0.36262284  0.95409993  0.56120758     0.16950
O1594       O  0.39234047  0.99000521  0.58589814    -0.60080
H1595       H  0.40363592  0.97507269  0.59352301     0.43950
H1596       H  0.27461976  0.97098260  0.60416211     0.43900
C1597       C  0.33406637  0.86324119  0.61744157    -0.05160
C1598       C  0.34085199  0.87650743  0.64113925    -0.32590
C1599       C  0.34632205  0.86170375  0.66402928     0.36660
C1600       C  0.34410510  0.83297807  0.66401945    -0.05520
C1601       C  0.34011137  0.81947026  0.63989977    -0.32490
C1602       C  0.33523585  0.83437419  0.61666136     0.36570
H1603       H  0.33995295  0.89863379  0.64270502     0.16940
O1604       O  0.35034852  0.87583914  0.68695108    -0.59980
H1605       H  0.33894806  0.79729833  0.63936255     0.16950
O1606       O  0.33135392  0.82062456  0.59345676    -0.60080
H1607       H  0.31442131  0.80998223  0.59589024     0.43950
H1608       H  0.37010659  0.87425488  0.69040845     0.43900
C1609       C  0.41490898  0.96483037  0.69462422    -0.05160
C1610       C  0.42781042  0.98731359  0.68271022    -0.32590
C1611       C  0.41664779  0.99957643  0.65978422     0.36660
C1612       C  0.39149553  0.99010897  0.64999867    -0.05520
C1613       C  0.38265886  0.96420010  0.65843077    -0.32490
C1614       C  0.39441911  0.95141148  0.68031746     0.36570
H1615       H  0.44462983  0.99706589  0.69257370     0.16940
O1616       O  0.42886924  0.02190147  0.64824960    -0.59980
H1617       H  0.36467596  0.95506808  0.65007624     0.16950
O1618       O  0.38407089  0.92699149  0.68918577    -0.60080
H1619       H  0.36474948  0.93061600  0.69366254     0.43950
H1620       H  0.43552529  0.03374296  0.66265070     0.43900
C1621       C  0.37645603  0.92626841  0.76923638    -0.05160
C1622       C  0.38287756  0.90378177  0.75303717    -0.32590
C1623       C  0.37731506  0.87718276  0.76088219     0.36660
C1624       C  0.36417894  0.87244442  0.78502782    -0.05520
C1625       C  0.35694022  0.89489532  0.80103736    -0.32490
C1626       C  0.36317175  0.92168795  0.79332349     0.36570
H1627       H  0.39454213  0.90652507  0.73515365     0.16940
O1628       O  0.38568026  0.85596210  0.74509167    -0.59980
H1629       H  0.34656999  0.89172271  0.81962912     0.16950
O1630       O  0.35763906  0.94304818  0.81001594    -0.60080
H1631       H  0.33968035  0.95022826  0.80439241     0.43950
H1632       H  0.40428550  0.85129274  0.75112849     0.43900
C1633       C  0.29945335  0.64491602  0.92959545    -0.05160
C1634       C  0.31274057  0.67057566  0.92788613    -0.32590
C1635       C  0.33213657  0.67866024  0.94651966     0.36660
C1636       C  0.34221553  0.65951701  0.96503680    -0.05520
C1637       C  0.33390981  0.63199888  0.96216748    -0.32490
C1638       C  0.31188435  0.62490796  0.94594530     0.36570
H1639       H  0.30633259  0.68591919  0.91380041     0.16940
O1640       O  0.33728039  0.70611444  0.94905781    -0.59980
H1641       H  0.34132364  0.61673299  0.97598969     0.16950
O1642       O  0.30103624  0.59929129  0.94883508    -0.60080
H1643       H  0.31306081  0.58700374  0.93844396     0.43950
H1644       H  0.34648939  0.71165378  0.93249590     0.43900
C1645       C  0.21532525  0.68962406  0.89234487    -0.05160
C1646       C  0.20180006  0.68726484  0.86812574    -0.32590
C1647       C  0.19374436  0.71033492  0.85390975     0.36660
C1648       C  0.20018711  0.73673146  0.86321316    -0.05520
C1649       C  0.21100421  0.73930908  0.88863120    -0.32490
C1650       C  0.21829766  0.71598085  0.90336438     0.36570
H1651       H  0.19921351  0.66747019  0.85891246     0.16940
O1652       O  0.18271035  0.70653803  0.82943502    -0.59980
H1653       H  0.21540375  0.75943223  0.89645274     0.16950
O1654       O  0.22843740  0.71911663  0.92830924    -0.60080
H1655       H  0.24541498  0.72978276  0.92628044     0.43950
H1656       H  0.16279163  0.70625903  0.83235810     0.43900
C1657       C  0.40717421  0.74238371  0.94099096    -0.05160
C1658       C  0.40851182  0.71407948  0.93546552    -0.32590
C1659       C  0.39850291  0.69452557  0.95376107     0.36660
C1660       C  0.38552517  0.70350678  0.97707181    -0.05520
C1661       C  0.38519847  0.73188408  0.98239682    -0.32490
C1662       C  0.39699114  0.75079824  0.96549909     0.36570
H1663       H  0.41597820  0.70725141  0.91650047     0.16940
O1664       O  0.40116481  0.66703888  0.94862990    -0.59980
H1665       H  0.37533129  0.73975558  0.99991265     0.16950
O1666       O  0.39532789  0.77814468  0.97165043    -0.60080
H1667       H  0.41287845  0.78243102  0.98015914     0.43950
H1668       H  0.39012818  0.66367093  0.93268731     0.43900
C1669       C  0.34946967  0.80828934  0.89398683    -0.05160
C1670       C  0.32713276  0.79065047  0.89141023    -0.32590
C1671       C  0.30157656  0.80096391  0.88482490     0.36660
C1672       C  0.29853239  0.82898299  0.87897369    -0.05520
C1673       C  0.31991261  0.84695434  0.88395196    -0.32490
C1674       C  0.34503583  0.83690471  0.89225354     0.36570
H1675       H  0.32963162  0.76863168  0.89294768     0.16940
O1676       O  0.28068159  0.78301878  0.88082602    -0.59980
H1677       H  0.31763875  0.86864315  0.87969913     0.16950
O1678       O  0.36532195  0.85521376  0.89747419    -0.60080
H1679       H  0.36569788  0.85677658  0.91692098     0.43950
H1680       H  0.27104770  0.78192487  0.89796025     0.43900
C1681       C  0.64879149  0.13497662  0.80429720    -0.05160
C1682       C  0.63208680  0.15810834  0.80959117    -0.32590
C1683       C  0.64202322  0.18447499  0.80667153     0.36660
C1684       C  0.66872237  0.18790507  0.79831126    -0.05520
C1685       C  0.68654049  0.16549144  0.79690646    -0.32490
C1686       C  0.67680573  0.13892033  0.80032928     0.36570
H1687       H  0.61060300  0.15622205  0.81353159     0.16940
O1688       O  0.62502006  0.20661694  0.81000488    -0.59980
H1689       H  0.70789035  0.16860550  0.79261743     0.16950
O1690       O  0.69438320  0.11692961  0.79916180    -0.60080
H1691       H  0.70427392  0.11854116  0.78217907     0.43950
H1692       H  0.62595854  0.21102410  0.82902076     0.43900
C1693       C  0.72859705  0.17663508  0.61729150    -0.05160
C1694       C  0.70455061  0.19052108  0.62418685    -0.32590
C1695       C  0.70057755  0.19962955  0.65011266     0.36660
C1696       C  0.72022432  0.19367917  0.66937645    -0.05520
C1697       C  0.74336428  0.17861127  0.66272756    -0.32490
C1698       C  0.74795706  0.17056706  0.63695812     0.36570
H1699       H  0.68910639  0.19441498  0.60948806     0.16940
O1700       O  0.67826989  0.21538413  0.65614389    -0.59980
H1701       H  0.75894949  0.17463698  0.67732410     0.16950
O1702       O  0.77109699  0.15586006  0.63130304    -0.60080
H1703       H  0.78627147  0.16896083  0.63317416     0.43950
H1704       H  0.66464210  0.20230013  0.66305701     0.43900
C1705       C  0.94278159  0.32286610  0.60707071    -0.05160
C1706       C  0.96105396  0.34156839  0.59581697    -0.32590
C1707       C  0.97778570  0.35778917  0.61184593     0.36660
C1708       C  0.97618104  0.35560819  0.63952714    -0.05520
C1709       C  0.95883087  0.33611702  0.65065219    -0.32490
C1710       C  0.94256481  0.31957042  0.63473868     0.36570
H1711       H  0.96128314  0.34469719  0.57469997     0.16940
O1712       O  0.99510687  0.37623679  0.60035892    -0.59980
H1713       H  0.95791750  0.33368554  0.67184457     0.16950
O1714       O  0.92606337  0.30037399  0.64634448    -0.60080
H1715       H  0.91220944  0.31091298  0.65638325     0.43950
H1716       H  0.98363416  0.39230277  0.59569892     0.43900
C1717       C  0.84547175  0.30502895  0.60382493    -0.05160
C1718       C  0.83751309  0.32650074  0.62064615    -0.32590
C1719       C  0.82135098  0.32113928  0.64270791     0.36660
C1720       C  0.81165961  0.29453868  0.64702825    -0.05520
C1721       C  0.81620385  0.27412097  0.62838377    -0.32490
C1722       C  0.83336276  0.27890483  0.60709778     0.36570
H1723       H  0.84598262  0.34679847  0.61818427     0.16940
O1724       O  0.81623872  0.34153143  0.66061821    -0.59980
H1725       H  0.80889656  0.25348568  0.63187556     0.16950
O1726       O  0.84111431  0.25680023  0.59215749    -0.60080
H1727       H  0.82616919  0.25421860  0.57939011     0.43950
H1728       H  0.83340687  0.34371476  0.67049914     0.43900
C1729       C  0.95085888  0.43023344  0.70939475    -0.05160
C1730       C  0.94893338  0.43280080  0.68183066    -0.32590
C1731       C  0.96282322  0.41464411  0.66481124     0.36660
C1732       C  0.97927770  0.39336577  0.67505682    -0.05520
C1733       C  0.98199305  0.39152616  0.70259825    -0.32490
C1734       C  0.96843334  0.40984533  0.71954966     0.36570
H1735       H  0.93466843  0.44740765  0.67348660     0.16940
O1736       O  0.95968554  0.41756108  0.63815635    -0.59980
H1737       H  0.99364711  0.37489875  0.71117953     0.16950
O1738       O  0.97025494  0.40585925  0.74623710    -0.60080
H1739       H  0.95684230  0.39138676  0.75044578     0.43950
H1740       H  0.94272765  0.40766273  0.63393270     0.43900
C1741       C  0.87190641  0.39265194  0.74855054    -0.05160
C1742       C  0.87702463  0.38013202  0.77294091    -0.32590
C1743       C  0.87484436  0.35184374  0.77579029     0.36660
C1744       C  0.86720333  0.33581357  0.75409056    -0.05520
C1745       C  0.85987305  0.34864412  0.73038343    -0.32490
C1746       C  0.86187599  0.37695014  0.72761801     0.36570
H1747       H  0.88514012  0.39191538  0.78912938     0.16940
O1748       O  0.88151851  0.33997943  0.79944450    -0.59980
H1749       H  0.85289201  0.33668182  0.71385439     0.16950
O1750       O  0.85625006  0.38885813  0.70374089    -0.60080
H1751       H  0.83690987  0.39453434  0.70486663     0.43950
H1752       H  0.90121300  0.33577982  0.79816212     0.43900
C1753       C  0.60671830  0.32851862  0.93020272    -0.05160
C1754       C  0.62581258  0.31549594  0.94655995    -0.32590
C1755       C  0.64088948  0.33013016  0.96518711     0.36660
C1756       C  0.63676069  0.35860534  0.96876194    -0.05520
C1757       C  0.61712448  0.37171660  0.95290723    -0.32490
C1758       C  0.60271962  0.35706911  0.93339768     0.36570
H1759       H  0.63065272  0.29402592  0.94343152     0.16940
O1760       O  0.66063077  0.31651578  0.97911907    -0.59980
H1761       H  0.61286447  0.39332524  0.95573130     0.16950
O1762       O  0.58515406  0.37093888  0.91717452    -0.60080
H1763       H  0.59654881  0.37781574  0.90246943     0.43950
H1764       H  0.65086358  0.30312717  0.99037551     0.43900
C1765       C  0.65414083  0.28499942  0.86456464    -0.05160
C1766       C  0.65950245  0.25778640  0.87220911    -0.32590
C1767       C  0.68597807  0.24830085  0.87502949     0.36660
C1768       C  0.70780418  0.26599759  0.87036261    -0.05520
C1769       C  0.70272561  0.29326937  0.86284242    -0.32490
C1770       C  0.67605532  0.30277005  0.85963573     0.36570
H1771       H  0.64309200  0.24391572  0.87691375     0.16940
O1772       O  0.69042292  0.22129676  0.88143506    -0.59980
H1773       H  0.71941933  0.30672417  0.85805831     0.16950
O1774       O  0.67157158  0.32936768  0.85182360    -0.60080
H1775       H  0.67084192  0.32871499  0.83233564     0.43950
H1776       H  0.69146735  0.22089829  0.90091790     0.43900
C1777       C  0.71769345  0.42962208  0.93117486    -0.05160
C1778       C  0.69470723  0.44359376  0.94086361    -0.32590
C1779       C  0.67670653  0.43088912  0.95891531     0.36660
C1780       C  0.68074283  0.40333469  0.96699327    -0.05520
C1781       C  0.70309140  0.38910433  0.95645919    -0.32490
C1782       C  0.72169292  0.40204474  0.93941170     0.36570
H1783       H  0.69049527  0.46431357  0.93422721     0.16940
O1784       O  0.65503238  0.44555544  0.96859340    -0.59980
H1785       H  0.70721628  0.36828059  0.96287054     0.16950
O1786       O  0.74443441  0.38781108  0.93145641    -0.60080
H1787       H  0.73777409  0.37275525  0.92014905     0.43950
H1788       H  0.66293633  0.45920250  0.98074199     0.43900
C1789       C  0.76620565  0.40641897  0.85185026    -0.05160
C1790       C  0.79494879  0.40545452  0.85021494    -0.32590
C1791       C  0.80881981  0.38056264  0.84692490     0.36660
C1792       C  0.79408973  0.35612334  0.84673584    -0.05520
C1793       C  0.76549334  0.35747773  0.84671733    -0.32490
C1794       C  0.75163691  0.38232677  0.84751176     0.36570
H1795       H  0.80698548  0.42365669  0.85303126     0.16940
O1796       O  0.83664795  0.38022886  0.84585998    -0.59980
H1797       H  0.75345966  0.33914159  0.84579003     0.16950
O1798       O  0.72389565  0.38301475  0.84425721    -0.60080
H1799       H  0.71619575  0.36973411  0.85706667     0.43950
H1800       H  0.84124530  0.38425772  0.82723001     0.43900
C1801       C  0.03697601  0.65614672  0.67635614    -0.05160
C1802       C  0.03136338  0.66131688  0.70297751    -0.32590
C1803       C  0.03871930  0.64261531  0.72269088     0.36660
C1804       C  0.05654345  0.62077080  0.71659754    -0.05520
C1805       C  0.06016620  0.61399115  0.68988028    -0.32490
C1806       C  0.05011173  0.63127147  0.66981682     0.36570
H1807       H  0.02165827  0.68034101  0.70860231     0.16940
O1808       O  0.03346358  0.64908506  0.74851777    -0.59980
H1809       H  0.07371876  0.59729313  0.68459103     0.16950
O1810       O  0.05470695  0.62444790  0.64405924    -0.60080
H1811       H  0.04006803  0.61144911  0.63953184     0.43950
H1812       H  0.04623124  0.66400347  0.75300933     0.43900
C1813       C  0.09007039  0.72587957  0.62037589    -0.05160
C1814       C  0.07513286  0.73565410  0.64208851    -0.32590
C1815       C  0.05425433  0.71991495  0.65346859     0.36660
C1816       C  0.04806529  0.69383579  0.64332881    -0.05520
C1817       C  0.06303799  0.68412782  0.62157141    -0.32490
C1818       C  0.08363412  0.70000761  0.61000732     0.36570
H1819       H  0.08023036  0.75523129  0.65071797     0.16940
O1820       O  0.04021787  0.73003634  0.67470627    -0.59980
H1821       H  0.05843414  0.66437033  0.61315723     0.16950
O1822       O  0.09827735  0.68947480  0.58934133    -0.60080
H1823       H  0.08901613  0.69642646  0.57333039     0.43950
H1824       H  0.05056983  0.72372516  0.69032605     0.43900
C1825       C  0.69321475  0.06363668  0.63965223    -0.05160
C1826       C  0.71766553  0.07521123  0.64806665    -0.32590
C1827       C  0.73543395  0.08756527  0.63000880     0.36660
C1828       C  0.72837906  0.08969103  0.60315900    -0.05520
C1829       C  0.70448766  0.07691048  0.59462118    -0.32490
C1830       C  0.68706256  0.06394367  0.61258485     0.36570
H1831       H  0.72318799  0.07424560  0.66867314     0.16940
O1832       O  0.75844356  0.09986159  0.63922245    -0.59980
H1833       H  0.69817499  0.07907279  0.57430738     0.16950
O1834       O  0.66367605  0.05213492  0.60361153    -0.60080
H1835       H  0.64967507  0.06680893  0.60454237     0.43950
H1836       H  0.77328329  0.08646390  0.63588450     0.43900
C1837       C  0.66296778  0.06012621  0.68165494    -0.05160
C1838       C  0.67032227  0.05108836  0.70684955    -0.32590
C1839       C  0.65566594  0.05896683  0.72906065     0.36660
C1840       C  0.63450488  0.07859220  0.72718113    -0.05520
C1841       C  0.62761430  0.08874764  0.70206101    -0.32490
C1842       C  0.64158024  0.07942479  0.67932500     0.36570
H1843       H  0.68723778  0.03701811  0.70927901     0.16940
O1844       O  0.66272331  0.04774257  0.75290358    -0.59980
H1845       H  0.61196554  0.10432340  0.70012172     0.16950
O1846       O  0.63451129  0.08956921  0.65508841    -0.60080
H1847       H  0.61843811  0.07887099  0.64968016     0.43950
H1848       H  0.65085240  0.03153074  0.75503307     0.43900
C1849       C  0.65361193  0.70497426  0.02550262    -0.05160
C1850       C  0.66049939  0.72816340  0.04020350    -0.32590
C1851       C  0.64070078  0.74261044  0.05457181     0.36660
C1852       C  0.61359524  0.73332953  0.05536954    -0.05520
C1853       C  0.60655111  0.71068601  0.03986004    -0.32490
C1854       C  0.62623228  0.69672244  0.02480046     0.36570
H1855       H  0.68141811  0.73487340  0.04081523     0.16940
O1856       O  0.64868778  0.76381420  0.07036064    -0.59980
H1857       H  0.58623537  0.70238274  0.04120408     0.16950
O1858       O  0.61908193  0.67354268  0.01131411    -0.60080
H1859       H  0.60608900  0.67975980  0.99763857     0.43950
H1860       H  0.64447637  0.78068113  0.06017303     0.43900
C1861       C  0.69865602  0.67691019  0.02362366    -0.05160
C1862       C  0.69499001  0.65760788  0.04401359    -0.32590
C1863       C  0.71757207  0.64480157  0.05624206     0.36660
C1864       C  0.74425010  0.65021012  0.04726862    -0.05520
C1865       C  0.74724591  0.66752557  0.02525225    -0.32490
C1866       C  0.72542105  0.68280993  0.01561795     0.36570
H1867       H  0.67467978  0.65301095  0.05090289     0.16940
O1868       O  0.71343832  0.62883476  0.07811857    -0.59980
H1869       H  0.76738482  0.67241566  0.01801594     0.16950
O1870       O  0.73073549  0.70468583  0.99942932    -0.60080
H1871       H  0.73097570  0.72088770  0.01116556     0.43950
H1872       H  0.71091137  0.61000922  0.07128117     0.43900
C1873       C  0.62823445  0.96956046  0.70847644    -0.05160
C1874       C  0.61592661  0.98564335  0.68886646    -0.32590
C1875       C  0.63174990  0.00181507  0.67178247     0.36660
C1876       C  0.66032222  0.00137728  0.67371798    -0.05520
C1877       C  0.67252494  0.98575316  0.69368228    -0.32490
C1878       C  0.65673372  0.97035630  0.71121242     0.36570
H1879       H  0.59420278  0.98444914  0.68581188     0.16940
O1880       O  0.61934396  0.01662361  0.65216514    -0.59980
H1881       H  0.69440759  0.98575450  0.69586447     0.16950
O1882       O  0.66934724  0.95510712  0.73042381    -0.60080
H1883       H  0.67720797  0.93896526  0.72125240     0.43950
H1884       H  0.60861081  0.03102131  0.66128986     0.43900
C1885       C  0.62471462  0.87045232  0.71701983    -0.05160
C1886       C  0.63984473  0.86025467  0.73813314    -0.32590
C1887       C  0.65257194  0.83500717  0.73638092     0.36660
C1888       C  0.65021562  0.81960193  0.71318157    -0.05520
C1889       C  0.63551947  0.82996597  0.69170077    -0.32490
C1890       C  0.62232604  0.85534361  0.69370667     0.36570
H1891       H  0.64187421  0.87207823  0.75605559     0.16940
O1892       O  0.66816519  0.82598753  0.75707450    -0.59980
H1893       H  0.63430356  0.81840891  0.67357691     0.16950
O1894       O  0.60724782  0.86516011  0.67304711    -0.60080
H1895       H  0.58842407  0.85906329  0.67667886     0.43950
H1896       H  0.68571218  0.83568913  0.75520522     0.43900
C1897       C  0.74058372  0.97900904  0.61052959    -0.05160
C1898       C  0.71303661  0.97607894  0.60369392    -0.32590
C1899       C  0.69241302  0.98909517  0.61826725     0.36660
C1900       C  0.69913333  0.00543705  0.63996048    -0.05520
C1901       C  0.72668650  0.00928697  0.64608808    -0.32490
C1902       C  0.74728772  0.99656816  0.63136780     0.36570
H1903       H  0.70743229  0.96191088  0.58828620     0.16940
O1904       O  0.66573970  0.98458499  0.61205284    -0.59980
H1905       H  0.73220004  0.02146643  0.66300620     0.16950
O1906       O  0.77374058  0.99904363  0.63930723    -0.60080
H1907       H  0.78100807  0.01467649  0.62899704     0.43950
H1908       H  0.66203217  0.99650249  0.59661682     0.43900
C1909       C  0.76309471  0.88071655  0.61456768    -0.05160
C1910       C  0.74627482  0.87541515  0.63633793    -0.32590
C1911       C  0.73621141  0.84923747  0.64083238     0.36660
C1912       C  0.74406508  0.82761844  0.62419822    -0.05520
C1913       C  0.76039088  0.83268701  0.60228157    -0.32490
C1914       C  0.76947546  0.85912078  0.59698500     0.36570
H1915       H  0.74118846  0.89148494  0.65020126     0.16940
O1916       O  0.72050915  0.84456813  0.66272417    -0.59980
H1917       H  0.76648781  0.81598894  0.58948226     0.16950
O1918       O  0.78363667  0.86371450  0.57410922    -0.60080
H1919       H  0.80143205  0.85436728  0.57644819     0.43950
H1920       H  0.70154108  0.84777269  0.65691903     0.43900
C1921       C  0.96751686  0.75229873  0.61071139    -0.05160
C1922       C  0.95081861  0.73760578  0.62818083    -0.32590
C1923       C  0.95948433  0.71292055  0.63986985     0.36660
C1924       C  0.98608161  0.70243477  0.63511894    -0.05520
C1925       C  0.00021187  0.71467977  0.61371393    -0.32490
C1926       C  0.99164636  0.73965818  0.60223023     0.36570
H1927       H  0.93134800  0.74618578  0.63401192     0.16940
O1928       O  0.94161268  0.69990631  0.65628710    -0.59980
H1929       H  0.01817504  0.70535852  0.60562610     0.16950
O1930       O  0.00804291  0.75241646  0.58416676    -0.60080
H1931       H  0.00193600  0.74559687  0.56682101     0.43950
H1932       H  0.93159347  0.68700234  0.64488986     0.43900
C1933       C  0.92038543  0.82916502  0.64215151    -0.05160
C1934       C  0.89645935  0.83534109  0.62792404    -0.32590
C1935       C  0.87147567  0.82493771  0.63583787     0.36660
C1936       C  0.86999473  0.80862362  0.65861291    -0.05520
C1937       C  0.89248030  0.80748693  0.67557725    -0.32490
C1938       C  0.91758529  0.81817500  0.66768587     0.36570
H1939       H  0.89722945  0.84502448  0.60876153     0.16940
O1940       O  0.84953636  0.82813952  0.61950583    -0.59980
H1941       H  0.89101039  0.79702074  0.69437055     0.16950
O1942       O  0.93964364  0.81642806  0.68415149    -0.60080
H1943       H  0.94110682  0.79696851  0.68978375     0.43950
H1944       H  0.84151382  0.84618599  0.62420479     0.43900
C1945       C  0.96096779  0.61950494  0.70352592    -0.05160
C1946       C  0.95991304  0.64744647  0.71023136    -0.32590
C1947       C  0.97043891  0.66776841  0.69321896     0.36660
C1948       C  0.98123893  0.66044610  0.66828970    -0.05520
C1949       C  0.98184761  0.63253198  0.66154897    -0.32490
C1950       C  0.97250092  0.61223880  0.67899227     0.36570
H1951       H  0.95026107  0.65367539  0.72846715     0.16940
O1952       O  0.97036031  0.69476532  0.70101255    -0.59980
H1953       H  0.99111895  0.62630490  0.64313374     0.16950
O1954       O  0.97508024  0.58512100  0.67213877    -0.60080
H1955       H  0.96392403  0.58277945  0.65609148     0.43950
H1956       H  0.97801568  0.69517266  0.71903635     0.43900
C1957       C  0.87971485  0.61171797  0.71214130    -0.05160
C1958       C  0.86116816  0.61857982  0.73222077    -0.32590
C1959       C  0.85488328  0.64579515  0.73789020     0.36660
C1960       C  0.86523996  0.66715662  0.72191642    -0.05520
C1961       C  0.87946457  0.66010117  0.69899669    -0.32490
C1962       C  0.88623088  0.63272852  0.69364967     0.36570
H1963       H  0.85310145  0.60305422  0.74524721     0.16940
O1964       O  0.83914216  0.65109200  0.75966878    -0.59980
H1965       H  0.88531056  0.67579103  0.68496434     0.16950
O1966       O  0.89844027  0.62676464  0.67000119    -0.60080
H1967       H  0.91562160  0.63727561  0.66957459     0.43950
H1968       H  0.82015874  0.64803732  0.75397487     0.43900
C1969       C  0.73609362  0.64301180  0.94320323    -0.05160
C1970       C  0.71652684  0.62993456  0.95887215    -0.32590
C1971       C  0.69520603  0.64496418  0.97065955     0.36660
C1972       C  0.69299999  0.67359993  0.96665649    -0.05520
C1973       C  0.71192095  0.68643038  0.95003836    -0.32490
C1974       C  0.73350133  0.67153433  0.93879019     0.36570
H1975       H  0.71715374  0.60784137  0.96114516     0.16940
O1976       O  0.67592468  0.63147872  0.98527782    -0.59980
H1977       H  0.71078585  0.70838153  0.94683002     0.16950
O1978       O  0.75200144  0.68495335  0.92320583    -0.60080
H1979       H  0.74255059  0.68851378  0.90631544     0.43950
H1980       H  0.68583005  0.62268237  0.00005814     0.43900
C1981       C  0.76779990  0.63003416  0.85485410    -0.05160
C1982       C  0.79505390  0.63492433  0.84743549    -0.32590
C1983       C  0.80209808  0.65758813  0.83223018     0.36660
C1984       C  0.78170941  0.67534226  0.82319365    -0.05520
C1985       C  0.75440661  0.66853270  0.82766474    -0.32490
C1986       C  0.74728307  0.64589945  0.84298164     0.36570
H1987       H  0.81146030  0.62262526  0.85510093     0.16940
O1988       O  0.82900330  0.66276879  0.82735392    -0.59980
H1989       H  0.73834340  0.68102347  0.81975850     0.16950
O1990       O  0.72035688  0.63940019  0.84629674    -0.60080
H1991       H  0.71127549  0.65614552  0.85319381     0.43950
H1992       H  0.83506134  0.67429468  0.84223663     0.43900
C1993       C  0.62554745  0.75108443  0.93997635    -0.05160
C1994       C  0.64655712  0.75935133  0.95672337    -0.32590
C1995       C  0.66185710  0.74005738  0.97112844     0.36660
C1996       C  0.65621510  0.71180857  0.96905533    -0.05520
C1997       C  0.63427576  0.70359500  0.95347706    -0.32490
C1998       C  0.61896546  0.72295840  0.93911058     0.36570
H1999       H  0.65293452  0.78058058  0.95660181     0.16940
O2000       O  0.68413159  0.74862969  0.98496791    -0.59980
H2001       H  0.62961631  0.68200428  0.95171201     0.16950
O2002       O  0.59903745  0.71400413  0.92248146    -0.60080
H2003       H  0.60861480  0.70864661  0.90606122     0.43950
H2004       H  0.67721869  0.76214661  0.99794308     0.43900
C2005       C  0.64960627  0.76796968  0.84846577    -0.05160
C2006       C  0.67752751  0.76286165  0.85005389    -0.32590
C2007       C  0.69078444  0.74832462  0.83024959     0.36660
C2008       C  0.67604821  0.73901563  0.80826561    -0.05520
C2009       C  0.64851063  0.74556667  0.80587348    -0.32490
C2010       C  0.63512748  0.75973883  0.82592186     0.36570
H2011       H  0.68889069  0.76937626  0.86713827     0.16940
O2012       O  0.71825873  0.74390809  0.83226203    -0.59980
H2013       H  0.63713007  0.73877702  0.78891119     0.16950
O2014       O  0.60753758  0.76338920  0.82429077    -0.60080
H2015       H  0.60489496  0.77887294  0.81183011     0.43950
H2016       H  0.72029125  0.72803004  0.84436780     0.43900
C2017       C  0.53746166  0.89152740  0.81478129    -0.05160
C2018       C  0.52917644  0.88869541  0.78852205    -0.32590
C2019       C  0.54030737  0.90455051  0.76843355     0.36660
C2020       C  0.56341319  0.92063015  0.77321441    -0.05520
C2021       C  0.57220246  0.92359539  0.79939076    -0.32490
C2022       C  0.55901534  0.90960210  0.82018713     0.36570
H2023       H  0.51396428  0.87380965  0.78338758     0.16940
O2024       O  0.53109374  0.90099002  0.74322799    -0.59980
H2025       H  0.59040718  0.93515275  0.80348198     0.16950
O2026       O  0.56777946  0.91319665  0.84550229    -0.60080
H2027       H  0.58355262  0.90061104  0.84747335     0.43950
H2028       H  0.51646073  0.91486974  0.74102168     0.43900
C2029       C  0.53835323  0.85544874  0.85200600    -0.05160
C2030       C  0.54710591  0.86161626  0.87768113    -0.32590
C2031       C  0.56377790  0.84306934  0.89178744     0.36660
C2032       C  0.57089350  0.81762408  0.88058416    -0.05520
C2033       C  0.55951897  0.81062106  0.85613581    -0.32490
C2034       C  0.54440823  0.82956883  0.84144618     0.36570
H2035       H  0.54219353  0.88138023  0.88618064     0.16940
O2036       O  0.57475143  0.85091737  0.91531374    -0.59980
H2037       H  0.56477847  0.79119085  0.84711494     0.16950
O2038       O  0.53743085  0.82358738  0.81592722    -0.60080
H2039       H  0.52884260  0.80524572  0.81632278     0.43950
H2040       H  0.56195579  0.84408762  0.92890688     0.43900
C2041       C  0.47964383  0.85511584  0.85294547    -0.05160
C2042       C  0.47680434  0.82801612  0.84399320    -0.32590
C2043       C  0.46169938  0.80870043  0.85831588     0.36660
C2044       C  0.44892555  0.81629805  0.88199442    -0.05520
C2045       C  0.45256503  0.84312544  0.89146088    -0.32490
C2046       C  0.46777420  0.86241613  0.87714507     0.36570
H2047       H  0.48528791  0.82211575  0.82520373     0.16940
O2048       O  0.45760870  0.78317668  0.84788282    -0.59980
H2049       H  0.44226417  0.84955827  0.90930284     0.16950
O2050       O  0.47045482  0.88851506  0.88669551    -0.60080
H2051       H  0.45514609  0.89907019  0.87894836     0.43950
H2052       H  0.47213665  0.77146931  0.85552016     0.43900
C2053       C  0.47899224  0.89504318  0.81919223    -0.05160
C2054       C  0.48376654  0.92347108  0.82053222    -0.32590
C2055       C  0.47360522  0.94148757  0.80122658     0.36660
C2056       C  0.45869704  0.93131140  0.77982522    -0.05520
C2057       C  0.45389613  0.90296888  0.77853271    -0.32490
C2058       C  0.46339772  0.88501296  0.79810340     0.36570
H2059       H  0.49584049  0.93161717  0.83644499     0.16940
O2060       O  0.47720507  0.96916142  0.80409114    -0.59980
H2061       H  0.44123130  0.89489074  0.76302402     0.16950
O2062       O  0.45775841  0.85761484  0.79608095    -0.60080
H2063       H  0.47039644  0.85044080  0.78247854     0.43950
H2064       H  0.49405047  0.97332786  0.79414490     0.43900
C2065       C  0.86203599  0.56655884  0.88122770    -0.05160
C2066       C  0.85952705  0.59533819  0.88219239    -0.32590
C2067       C  0.84045902  0.60794866  0.89938652     0.36660
C2068       C  0.82277886  0.59137958  0.91448365    -0.05520
C2069       C  0.83055840  0.56400079  0.91852720    -0.32490
C2070       C  0.85187009  0.55245044  0.90360723     0.36570
H2071       H  0.87096702  0.60801378  0.86874505     0.16940
O2072       O  0.83636101  0.63597205  0.89924402    -0.59980
H2073       H  0.81899357  0.55110641  0.93178766     0.16950
O2074       O  0.86228477  0.52747548  0.91084873    -0.60080
H2075       H  0.87944787  0.53160639  0.92012620     0.43950
H2076       H  0.84462414  0.64369155  0.88303845     0.43900
C2077       C  0.88967698  0.56693782  0.83620423    -0.05160
C2078       C  0.91578833  0.55736581  0.82882351    -0.32590
C2079       C  0.92733784  0.56436229  0.80413000     0.36660
C2080       C  0.91368116  0.58264301  0.78709740    -0.05520
C2081       C  0.88959413  0.59496623  0.79621732    -0.32490
C2082       C  0.87709696  0.58659231  0.81972054     0.36570
H2083       H  0.92593246  0.54217999  0.84096026     0.16940
O2084       O  0.95075027  0.55154051  0.79601681    -0.59980
H2085       H  0.87877329  0.60920203  0.78365736     0.16950
O2086       O  0.85092689  0.59499529  0.82448739    -0.60080
H2087       H  0.85173435  0.61523896  0.82596812     0.43950
H2088       H  0.94475080  0.53420010  0.78778113     0.43900
C2089       C  0.87459948  0.51139404  0.82576397    -0.05160
C2090       C  0.89675829  0.49336003  0.82909978    -0.32590
C2091       C  0.90807772  0.47906989  0.80756587     0.36660
C2092       C  0.89755275  0.48284143  0.78201259    -0.05520
C2093       C  0.87595347  0.50153351  0.77863409    -0.32490
C2094       C  0.86456309  0.51573528  0.80012391     0.36570
H2095       H  0.90493992  0.48992759  0.84860575     0.16940
O2096       O  0.92846255  0.46031463  0.81190734    -0.59980
H2097       H  0.86674509  0.50387151  0.75941125     0.16950
O2098       O  0.84268562  0.53274528  0.79607363    -0.60080
H2099       H  0.84980976  0.54862436  0.78604232     0.43950
H2100       H  0.91909724  0.44284267  0.81593223     0.43900
C2101       C  0.83756995  0.51408182  0.86140188    -0.05160
C2102       C  0.83950128  0.49066444  0.87751409    -0.32590
C2103       C  0.81643045  0.47972524  0.89014612     0.36660
C2104       C  0.79031063  0.49086347  0.88546495    -0.05520
C2105       C  0.78837819  0.51413401  0.86908889    -0.32490
C2106       C  0.81151596  0.52564137  0.85709836     0.36570
H2107       H  0.85915375  0.48115729  0.88079681     0.16940
O2108       O  0.81927550  0.45688831  0.90579072    -0.59980
H2109       H  0.76850544  0.52183974  0.86355783     0.16950
O2110       O  0.80781153  0.54602862  0.83878827    -0.60080
H2111       H  0.81841345  0.56191107  0.84511969     0.43950
H2112       H  0.82280587  0.44145221  0.89359065     0.43900
C2113       C  0.86753040  0.55498379  0.18780448    -0.05160
C2114       C  0.86333760  0.54478510  0.21348773    -0.32590
C2115       C  0.87598384  0.55667251  0.23541297     0.36660
C2116       C  0.89298914  0.57958112  0.23230325    -0.05520
C2117       C  0.89846832  0.58884361  0.20654212    -0.32490
C2118       C  0.88592645  0.57682669  0.18450542     0.36570
H2119       H  0.84890788  0.52847854  0.21679953     0.16940
O2120       O  0.86921054  0.54762695  0.26013905    -0.59980
H2121       H  0.91072432  0.60698768  0.20367055     0.16950
O2122       O  0.89118062  0.58712868  0.15987423    -0.60080
H2123       H  0.87975734  0.60388750  0.15836322     0.43950
H2124       H  0.88341266  0.53392814  0.26471675     0.43900
C2125       C  0.83537211  0.56432807  0.14822244    -0.05160
C2126       C  0.83678759  0.56291018  0.12051997    -0.32590
C2127       C  0.82196645  0.58123618  0.10451408     0.36660
C2128       C  0.80560303  0.60177152  0.11599691    -0.05520
C2129       C  0.80372358  0.60278890  0.14363512    -0.32490
C2130       C  0.81841744  0.58446596  0.15963794     0.36570
H2131       H  0.84976363  0.54770222  0.11126299     0.16940
O2132       O  0.82510193  0.58009959  0.07772094    -0.59980
H2133       H  0.79147739  0.61859982  0.15290330     0.16950
O2134       O  0.81557842  0.58604064  0.18645180    -0.60080
H2135       H  0.82768148  0.60114667  0.19193157     0.43950
H2136       H  0.81093104  0.56725848  0.07163800     0.43900
C2137       C  0.82528661  0.50528853  0.14396234    -0.05160
C2138       C  0.79863740  0.51531392  0.14786117    -0.32590
C2139       C  0.77673188  0.50651958  0.13240892     0.36660
C2140       C  0.78036301  0.48624734  0.11294887    -0.05520
C2141       C  0.80698243  0.47615913  0.10880115    -0.32490
C2142       C  0.82923040  0.48558226  0.12391792     0.36570
H2143       H  0.79456372  0.52977668  0.16352684     0.16940
O2144       O  0.75115000  0.51604993  0.13821296    -0.59980
H2145       H  0.81027388  0.45965209  0.09491847     0.16950
O2146       O  0.85468886  0.47521846  0.11901877    -0.60080
H2147       H  0.85577263  0.45795495  0.12934883     0.43950
H2148       H  0.74842084  0.53211406  0.12647638     0.43900
C2149       C  0.90613585  0.46305685  0.20254765    -0.05160
C2150       C  0.87791952  0.45882478  0.20471433    -0.32590
C2151       C  0.85909457  0.47532343  0.19086265     0.36660
C2152       C  0.86813955  0.49668494  0.17429572    -0.05520
C2153       C  0.89639504  0.50100295  0.17227299    -0.32490
C2154       C  0.91517794  0.48436814  0.18595853     0.36570
H2155       H  0.87048550  0.44171430  0.21626507     0.16940
O2156       O  0.83188233  0.47020011  0.19352170    -0.59980
H2157       H  0.90396697  0.51724751  0.15969536     0.16950
O2158       O  0.94245246  0.48848242  0.18226054    -0.60080
H2159       H  0.94728536  0.47772605  0.16636970     0.43950
H2160       H  0.82569697  0.48200557  0.20824540     0.43900
C2161       C  0.53868931  0.84285149  0.14385565    -0.05160
C2162       C  0.53128041  0.81638708  0.15203357    -0.32590
C2163       C  0.54274164  0.79293972  0.14057059     0.36660
C2164       C  0.56294108  0.79526082  0.12090083    -0.05520
C2165       C  0.57042879  0.82164410  0.11246604    -0.32490
C2166       C  0.55843514  0.84527996  0.12369346     0.36570
H2167       H  0.51639037  0.81381326  0.16757766     0.16940
O2168       O  0.53379513  0.76760900  0.14852476    -0.59980
H2169       H  0.58616412  0.82398954  0.09769518     0.16950
O2170       O  0.56638402  0.87052454  0.11485758    -0.60080
H2171       H  0.55535569  0.87407178  0.09890086     0.43950
H2172       H  0.54065522  0.76511501  0.16671626     0.43900
C2173       C  0.54144243  0.88557112  0.17384935    -0.05160
C2174       C  0.54242319  0.87996555  0.20087213    -0.32590
C2175       C  0.55676292  0.89680582  0.21802632     0.36660
C2176       C  0.57341356  0.91792957  0.20800602    -0.05520
C2177       C  0.57118224  0.92479843  0.18121128    -0.32490
C2178       C  0.55437217  0.90945936  0.16438544     0.36570
H2179       H  0.53237888  0.86202942  0.20867198     0.16940
O2180       O  0.55797031  0.88969704  0.24414638    -0.59980
H2181       H  0.58378235  0.94083084  0.17298779     0.16950
O2182       O  0.55164479  0.91735621  0.13862818    -0.60080
H2183       H  0.53739442  0.93181024  0.13873214     0.43950
H2184       H  0.54493952  0.90219587  0.25305843     0.43900
C2185       C  0.48368765  0.88804805  0.17721329    -0.05160
C2186       C  0.48224019  0.91597694  0.17050150    -0.32590
C2187       C  0.47176300  0.93549774  0.18825111     0.36660
C2188       C  0.46242181  0.92743313  0.21343377    -0.05520
C2189       C  0.46510478  0.89969861  0.22061105    -0.32490
C2190       C  0.47591353  0.88016410  0.20296011     0.36570
H2191       H  0.48895575  0.92263784  0.15120841     0.16940
O2192       O  0.46950172  0.96237943  0.18043552    -0.59980
H2193       H  0.45717383  0.89278001  0.23939877     0.16950
O2194       O  0.47817074  0.85327801  0.21079938    -0.60080
H2195       H  0.48928916  0.85328239  0.22703751     0.43950
H2196       H  0.45410982  0.96294173  0.16790038     0.43900
C2197       C  0.47973342  0.84992594  0.14120196    -0.05160
C2198       C  0.46203534  0.83046753  0.15230639    -0.32590
C2199       C  0.44704115  0.81248866  0.13642534     0.36660
C2200       C  0.44919735  0.81364277  0.10875901    -0.05520
C2201       C  0.46705879  0.83284299  0.09759372    -0.32490
C2202       C  0.48219187  0.85074336  0.11345952     0.36570
H2203       H  0.45967888  0.82897905  0.17336052     0.16940
O2204       O  0.42875786  0.79515423  0.14810770    -0.59980
H2205       H  0.46811913  0.83502953  0.07638881     0.16950
O2206       O  0.49877896  0.86959066  0.10155742    -0.60080
H2207       H  0.48803916  0.88685865  0.10106008     0.43950
H2208       H  0.43837007  0.77728070  0.14951689     0.43900
C2209       C  0.14298598  0.56328124  0.83588035    -0.05160
C2210       C  0.15907642  0.57722101  0.81750117    -0.32590
C2211       C  0.14743887  0.59063136  0.79612892     0.36660
C2212       C  0.11889168  0.59290348  0.79383597    -0.05520
C2213       C  0.10249733  0.58041296  0.81310499    -0.32490
C2214       C  0.11440472  0.56536131  0.83396071     0.36570
H2215       H  0.18098436  0.57534787  0.81809285     0.16940
O2216       O  0.16436226  0.60093663  0.77703501    -0.59980
H2217       H  0.08060793  0.58235363  0.81203504     0.16950
O2218       O  0.09817384  0.55263144  0.85221252    -0.60080
H2219       H  0.08927977  0.53743924  0.84268541     0.43950
H2220       H  0.16522199  0.58657493  0.76327861     0.43900
C2221       C  0.21634510  0.58906633  0.89695697    -0.05160
C2222       C  0.18962735  0.58591806  0.90650400    -0.32590
C2223       C  0.17067688  0.56996257  0.89304428     0.36660
C2224       C  0.17852870  0.55512798  0.87058568    -0.05520
C2225       C  0.20604001  0.55551433  0.86283769    -0.32490
C2226       C  0.22484458  0.57252225  0.87570311     0.36570
H2227       H  0.18261571  0.59826524  0.92290231     0.16940
O2228       O  0.14416408  0.56977580  0.90141980    -0.59980
H2229       H  0.21244258  0.54425793  0.84552674     0.16950
O2230       O  0.25049260  0.57513005  0.86547852    -0.60080
H2231       H  0.26133587  0.56045901  0.87409993     0.43950
H2232       H  0.13554236  0.58592957  0.89287464     0.43900
C2233       C  0.17498324  0.49513609  0.86102922    -0.05160
C2234       C  0.18827377  0.47606849  0.84481351    -0.32590
C2235       C  0.21170568  0.46210224  0.85333945     0.36660
C2236       C  0.22354835  0.46842134  0.87802213    -0.05520
C2237       C  0.20808954  0.48445816  0.89558494    -0.32490
C2238       C  0.18338697  0.49662185  0.88763673     0.36570
H2239       H  0.18122969  0.47272732  0.82491928     0.16940
O2240       O  0.22249176  0.44178817  0.83769888    -0.59980
H2241       H  0.21551784  0.48839510  0.91523160     0.16950
O2242       O  0.16819664  0.51069723  0.90582630    -0.60080
H2243       H  0.15276640  0.49849400  0.91012137     0.43950
H2244       H  0.22647304  0.45044497  0.82041590     0.43900
C2245       C  0.13607791  0.50443497  0.82728372    -0.05160
C2246       C  0.13663902  0.51606732  0.80189762    -0.32590
C2247       C  0.11822900  0.50851128  0.78241622     0.36660
C2248       C  0.10319871  0.48420232  0.78533288    -0.05520
C2249       C  0.10230735  0.47205826  0.81058033    -0.32490
C2250       C  0.11789370  0.48254737  0.83161875     0.36570
H2251       H  0.15202519  0.53067397  0.79657298     0.16940
O2252       O  0.11973108  0.52118650  0.75830746    -0.59980
H2253       H  0.09155173  0.45295842  0.81336381     0.16950
O2254       O  0.11676405  0.46987892  0.85571044    -0.60080
H2255       H  0.10423262  0.48134811  0.86638952     0.43950
H2256       H  0.10712837  0.53707510  0.75957137     0.43900
C2257       C  0.53533520  0.20919261  0.84714577    -0.05160
C2258       C  0.55340109  0.20546891  0.86827096    -0.32590
C2259       C  0.56630744  0.22801991  0.88027102     0.36660
C2260       C  0.56139299  0.25509301  0.87135859    -0.05520
C2261       C  0.54310755  0.25875833  0.85039752    -0.32490
C2262       C  0.52996130  0.23627315  0.83857160     0.36570
H2263       H  0.55774991  0.18492920  0.87533882     0.16940
O2264       O  0.58464272  0.22331428  0.90005565    -0.59980
H2265       H  0.54003304  0.27908855  0.84222779     0.16950
O2266       O  0.51335976  0.24073597  0.81731990    -0.60080
H2267       H  0.49812400  0.25222562  0.82392184     0.43950
H2268       H  0.60171393  0.21782703  0.89104027     0.43900
C2269       C  0.53765148  0.16374491  0.81976368    -0.05160
C2270       C  0.53705849  0.13625771  0.82823473    -0.32590
C2271       C  0.54979572  0.11539532  0.81374704     0.36660
C2272       C  0.56454187  0.12170419  0.79069556    -0.05520
C2273       C  0.56394886  0.14899232  0.78143799    -0.32490
C2274       C  0.55081533  0.16990108  0.79584268     0.36570
H2275       H  0.52683849  0.13100133  0.84644805     0.16940
O2276       O  0.55027510  0.08926228  0.82379063    -0.59980
H2277       H  0.57584711  0.15458398  0.76428603     0.16950
O2278       O  0.55105530  0.19626516  0.78641244    -0.60080
H2279       H  0.56751585  0.20464644  0.79407630     0.43950
H2280       H  0.53467313  0.07993367  0.81549672     0.43900
C2281       C  0.47951335  0.15932230  0.82160148    -0.05160
C2282       C  0.47947715  0.16018749  0.79380538    -0.32590
C2283       C  0.46581400  0.14017042  0.77881859     0.36660
C2284       C  0.45224327  0.11840029  0.79146238    -0.05520
C2285       C  0.45397480  0.11668131  0.81915307    -0.32490
C2286       C  0.46700234  0.13688788  0.83408147     0.36570
H2287       H  0.48937310  0.17699165  0.78370413     0.16940
O2288       O  0.46465037  0.14290607  0.75198453    -0.59980
H2289       H  0.44338349  0.10044243  0.82947362     0.16950
O2290       O  0.46675219  0.13482440  0.86098842    -0.60080
H2291       H  0.48121619  0.12132853  0.86533593     0.43950
H2292       H  0.45022860  0.15676687  0.74868409     0.43900
C2293       C  0.47807770  0.19777617  0.85678498    -0.05160
C2294       C  0.45898640  0.21692810  0.84767937    -0.32590
C2295       C  0.44283887  0.23194259  0.86536554     0.36660
C2296       C  0.44492158  0.22740111  0.89276368    -0.05520
C2297       C  0.46483909  0.20904694  0.90197511    -0.32490
C2298       C  0.48161100  0.19454981  0.88421889     0.36570
H2299       H  0.45619754  0.21985173  0.82671264     0.16940
O2300       O  0.42349333  0.24962371  0.85565185    -0.59980
H2301       H  0.46617306  0.20458238  0.92283287     0.16950
O2302       O  0.50064132  0.17642282  0.89376155    -0.60080
H2303       H  0.49019818  0.16100664  0.90142700     0.43950
H2304       H  0.40794790  0.23791320  0.85069829     0.43900
C2305       C  0.89792894  0.87076833  0.52994477    -0.05160
C2306       C  0.92575401  0.87679235  0.53146994    -0.32590
C2307       C  0.94379456  0.85925258  0.54496223     0.36660
C2308       C  0.93431784  0.83495461  0.55693286    -0.05520
C2309       C  0.90673203  0.82829499  0.55416325    -0.32490
C2310       C  0.88860222  0.84609283  0.54118298     0.36570
H2311       H  0.93337889  0.89548331  0.52265569     0.16940
O2312       O  0.97032259  0.86695480  0.54794502    -0.59980
H2313       H  0.89874584  0.81031521  0.56402502     0.16950
O2314       O  0.86167427  0.83927936  0.53975163    -0.60080
H2315       H  0.85338520  0.84653618  0.55614886     0.43950
H2316       H  0.98018534  0.85820273  0.53310876     0.43900
C2317       C  0.85904764  0.90637038  0.52998581    -0.05160
C2318       C  0.83125793  0.90057689  0.52929018    -0.32590
C2319       C  0.81226015  0.91659513  0.54261545     0.36660
C2320       C  0.82084686  0.93528896  0.56184370    -0.05520
C2321       C  0.84877678  0.94076918  0.56383219    -0.32490
C2322       C  0.86775146  0.92709302  0.54740253     0.36570
H2323       H  0.82400165  0.88227283  0.52017392     0.16940
O2324       O  0.78523818  0.91042232  0.54012820    -0.59980
H2325       H  0.85599737  0.95433160  0.57908084     0.16950
O2326       O  0.89482213  0.93303226  0.54956097    -0.60080
H2327       H  0.90123638  0.92241078  0.56504564     0.43950
H2328       H  0.77819835  0.92354357  0.52681519     0.43900
C2329       C  0.85576969  0.89946028  0.47104664    -0.05160
C2330       C  0.83033693  0.88694927  0.47134205    -0.32590
C2331       C  0.80777962  0.89898378  0.45908410     0.36660
C2332       C  0.81118293  0.92040132  0.44043971    -0.05520
C2333       C  0.83715780  0.93243569  0.43874202    -0.32490
C2334       C  0.85902814  0.92278704  0.45465675     0.36570
H2335       H  0.82769603  0.86764212  0.48152086     0.16940
O2336       O  0.78232940  0.88861806  0.46411598    -0.59980
H2337       H  0.84081291  0.94846747  0.42439054     0.16950
O2338       O  0.88383834  0.93519889  0.45274240    -0.60080
H2339       H  0.88471835  0.94763689  0.46810706     0.43950
H2340       H  0.78325197  0.86867843  0.46033980     0.43900
C2341       C  0.93765337  0.83211886  0.45178050    -0.05160
C2342       C  0.91314934  0.82194696  0.46206035    -0.32590
C2343       C  0.89340116  0.83971099  0.47271400     0.36660
C2344       C  0.89835505  0.86809492  0.47440194    -0.05520
C2345       C  0.92400383  0.87783591  0.46690297    -0.32490
C2346       C  0.94351843  0.86015415  0.45567710     0.36570
H2347       H  0.90797847  0.80062807  0.45907276     0.16940
O2348       O  0.86905778  0.82919377  0.48097218    -0.59980
H2349       H  0.92868025  0.89936642  0.46919539     0.16950
O2350       O  0.96742169  0.87082506  0.44636529    -0.60080
H2351       H  0.96271799  0.88011309  0.42957568     0.43950
H2352       H  0.85785615  0.82790286  0.46484727     0.43900
C2353       C  0.80142611  0.15138277  0.56178691    -0.05160
C2354       C  0.81435338  0.13426156  0.54325505    -0.32590
C2355       C  0.83703894  0.14355960  0.52875002     0.36660
C2356       C  0.84516894  0.17136849  0.53047855    -0.05520
C2357       C  0.83539857  0.18638080  0.55214986    -0.32490
C2358       C  0.81454012  0.17626091  0.56822705     0.36570
H2359       H  0.80615317  0.11422586  0.53899672     0.16940
O2360       O  0.84959752  0.12597505  0.51151923    -0.59980
H2361       H  0.84259676  0.20689856  0.55593954     0.16950
O2362       O  0.80717012  0.19081174  0.59027440    -0.60080
H2363       H  0.80197360  0.20944557  0.58411975     0.43950
H2364       H  0.86694470  0.12078529  0.52010270     0.43900
C2365       C  0.87655609  0.21134985  0.51715758    -0.05160
C2366       C  0.86954841  0.23737373  0.50708481    -0.32590
C2367       C  0.88196912  0.26116851  0.51622625     0.36660
C2368       C  0.89925399  0.25999722  0.53827546    -0.05520
C2369       C  0.90750645  0.23404175  0.54759463    -0.32490
C2370       C  0.89666804  0.20985046  0.53687500     0.36570
H2371       H  0.85367846  0.23946289  0.49251078     0.16940
O2372       O  0.87418689  0.28600420  0.50586122    -0.59980
H2373       H  0.92042508  0.23254356  0.56475972     0.16950
O2374       O  0.90411334  0.18499680  0.54737167    -0.60080
H2375       H  0.91790128  0.17749641  0.53503277     0.43950
H2376       H  0.88623004  0.28881091  0.49041349     0.43900
C2377       C  0.86928916  0.19889691  0.46083623    -0.05160
C2378       C  0.89703393  0.20583113  0.46299381    -0.32590
C2379       C  0.90766893  0.22902890  0.44993551     0.36660
C2380       C  0.89137625  0.24421225  0.43215997    -0.05520
C2381       C  0.86565282  0.23342401  0.42600770    -0.32490
C2382       C  0.85430494  0.21178479  0.44049620     0.36570
H2383       H  0.90965154  0.19532720  0.47730061     0.16940
O2384       O  0.93315220  0.23780375  0.45646109    -0.59980
H2385       H  0.85320165  0.24293861  0.41098450     0.16950
O2386       O  0.82757342  0.20554519  0.43622726    -0.60080
H2387       H  0.82763790  0.19348991  0.42054833     0.43950
H2388       H  0.93047118  0.24985976  0.47195204     0.43900
C2389       C  0.78529759  0.13610742  0.45481639    -0.05160
C2390       C  0.78285060  0.15458747  0.47591940    -0.32590
C2391       C  0.80495772  0.17030578  0.48409610     0.36660
C2392       C  0.83124745  0.16482488  0.47412744    -0.05520
C2393       C  0.83433856  0.14394841  0.45524028    -0.32490
C2394       C  0.81160371  0.12991881  0.44533625     0.36570
H2395       H  0.76279386  0.16020353  0.48304411     0.16940
O2396       O  0.80030727  0.19295411  0.49956057    -0.59980
H2397       H  0.85425494  0.13965599  0.44706737     0.16950
O2398       O  0.81499879  0.11263920  0.42435089    -0.60080
H2399       H  0.81686928  0.09408733  0.43220865     0.43950
H2400       H  0.78976436  0.18651030  0.51503100     0.43900
C2401       C  0.21528249  0.85825931  0.52547953    -0.05160
C2402       C  0.24179123  0.84969217  0.51893663    -0.32590
C2403       C  0.26456827  0.86120743  0.53111750     0.36660
C2404       C  0.26140371  0.88158764  0.55054258    -0.05520
C2405       C  0.23496684  0.89010521  0.55732077    -0.32490
C2406       C  0.21205141  0.87831477  0.54527284     0.36570
H2407       H  0.24484933  0.83398588  0.50417706     0.16940
O2408       O  0.28998785  0.85212709  0.52410020    -0.59980
H2409       H  0.23205086  0.90538151  0.57251477     0.16950
O2410       O  0.18661546  0.88716720  0.55238887    -0.60080
H2411       H  0.18234884  0.87708716  0.56885985     0.43950
H2412       H  0.29565189  0.86425600  0.50939453     0.43900
C2413       C  0.17500193  0.82569527  0.52757430    -0.05160
C2414       C  0.18582120  0.79943751  0.53140596    -0.32590
C2415       C  0.17059892  0.77879930  0.54310700     0.36660
C2416       C  0.14653551  0.78545892  0.55694011    -0.05520
C2417       C  0.13511715  0.81171731  0.55311832    -0.32490
C2418       C  0.14874977  0.83149177  0.53749491     0.36570
H2419       H  0.20631387  0.79474188  0.52519975     0.16940
O2420       O  0.18167704  0.75295860  0.54483276    -0.59980
H2421       H  0.11665030  0.81741780  0.56342902     0.16950
O2422       O  0.13689025  0.85658026  0.53288058    -0.60080
H2423       H  0.13541728  0.86555033  0.55031591     0.43950
H2424       H  0.17335854  0.74259088  0.53021076     0.43900
C2425       C  0.14919449  0.77799955  0.44458741    -0.05160
C2426       C  0.17276323  0.77390566  0.45969059    -0.32590
C2427       C  0.18631610  0.79590913  0.47093230     0.36660
C2428       C  0.17408753  0.82206677  0.47188761    -0.05520
C2429       C  0.14882410  0.82586727  0.45940495    -0.32490
C2430       C  0.13675680  0.80421926  0.44512001     0.36570
H2431       H  0.18298659  0.75414487  0.45944438     0.16940
O2432       O  0.21258781  0.79210118  0.47917456    -0.59980
H2433       H  0.13933299  0.84596157  0.45939702     0.16950
O2434       O  0.11392635  0.80937323  0.43050887    -0.60080
H2435       H  0.12070903  0.81552383  0.41307585     0.43950
H2436       H  0.22379092  0.79177506  0.46292190     0.43900
C2437       C  0.20850060  0.86164914  0.46680753    -0.05160
C2438       C  0.21800118  0.84981337  0.44326606    -0.32590
C2439       C  0.23987735  0.86087339  0.42942451     0.36660
C2440       C  0.25408788  0.88365296  0.43946249    -0.05520
C2441       C  0.24221963  0.89802931  0.46056491    -0.32490
C2442       C  0.21882742  0.88789056  0.47332789     0.36570
H2443       H  0.20917997  0.83126701  0.43559661     0.16940
O2444       O  0.24754272  0.84868356  0.40624124    -0.59980
H2445       H  0.25132506  0.91676067  0.46759660     0.16950
O2446       O  0.20659809  0.90364695  0.49230127    -0.60080
H2447       H  0.19034606  0.91172558  0.48371509     0.43950
H2448       H  0.23942689  0.86025298  0.39219834     0.43900
C2449       C  0.53640772  0.16455373  0.16832578    -0.05160
C2450       C  0.56054944  0.17557152  0.17824812    -0.32590
C2451       C  0.57518054  0.16231852  0.19839704     0.36660
C2452       C  0.56512383  0.13810394  0.21053579    -0.05520
C2453       C  0.54337858  0.12494201  0.19814786    -0.32490
C2454       C  0.53006849  0.13725494  0.17635594     0.36570
H2455       H  0.56764105  0.19531992  0.17138949     0.16940
O2456       O  0.59895317  0.17380614  0.20696242    -0.59980
H2457       H  0.53595510  0.10569960  0.20595764     0.16950
O2458       O  0.51056696  0.12254452  0.16354946    -0.60080
H2459       H  0.51917706  0.11664859  0.14681487     0.43950
H2460       H  0.59403249  0.19216042  0.21394984     0.43900
C2461       C  0.55348186  0.25227363  0.10846217    -0.05160
C2462       C  0.53505860  0.25607011  0.12939123    -0.32590
C2463       C  0.52403899  0.23373341  0.14336427     0.36660
C2464       C  0.53006371  0.20647617  0.13582876    -0.05520
C2465       C  0.54719090  0.20248728  0.11389869    -0.32490
C2466       C  0.55893458  0.22500783  0.10042706     0.36570
H2467       H  0.53171102  0.27656140  0.13699366     0.16940
O2468       O  0.50959720  0.23857969  0.16609501    -0.59980
H2469       H  0.55221639  0.18181810  0.10776373     0.16950
O2470       O  0.57793560  0.22002564  0.08122475    -0.60080
H2471       H  0.56796132  0.22190193  0.06439138     0.43950
H2472       H  0.49532796  0.25222042  0.16152746     0.43900
C2473       C  0.47287808  0.19708783  0.13304929    -0.05160
C2474       C  0.45531906  0.21763035  0.14236601    -0.32590
C2475       C  0.43908715  0.23295254  0.12505890     0.36660
C2476       C  0.43899989  0.22709846  0.09784336    -0.05520
C2477       C  0.45687466  0.20680962  0.08834941    -0.32490
C2478       C  0.47396464  0.19211361  0.10566838     0.36570
H2479       H  0.45401905  0.22166225  0.16328993     0.16940
O2480       O  0.42112346  0.25174021  0.13529864    -0.59980
H2481       H  0.45631782  0.20113578  0.06776796     0.16950
O2482       O  0.49062765  0.17195706  0.09580995    -0.60080
H2483       H  0.48030625  0.15469396  0.09793883     0.43950
H2484       H  0.43010340  0.26974033  0.13307217     0.43900
C2485       C  0.44281132  0.13819892  0.21252368    -0.05160
C2486       C  0.46337985  0.15646128  0.21989874    -0.32590
C2487       C  0.47916492  0.17024640  0.20075578     0.36660
C2488       C  0.47472017  0.16566956  0.17360627    -0.05520
C2489       C  0.45428595  0.14718191  0.16639677    -0.32490
C2490       C  0.43852750  0.13359218  0.18546160     0.36570
H2491       H  0.46630712  0.16112115  0.24052075     0.16940
O2492       O  0.49752076  0.18956821  0.20868137    -0.59980
H2493       H  0.45036426  0.14341218  0.14575969     0.16950
O2494       O  0.41860569  0.11598095  0.17744837    -0.60080
H2495       H  0.40301285  0.12787692  0.17249358     0.43950
H2496       H  0.51176155  0.17932342  0.21845453     0.43900
C2497       C  0.22334987  0.59466257  0.11303715    -0.05160
C2498       C  0.22325857  0.59672244  0.14055901    -0.32590
C2499       C  0.20693734  0.57979783  0.15624131     0.36660
C2500       C  0.19058508  0.55939251  0.14472550    -0.05520
C2501       C  0.19176784  0.55638000  0.11711060    -0.32490
C2502       C  0.20791050  0.57377958  0.10135212     0.36570
H2503       H  0.23482843  0.61276674  0.14995472     0.16940
O2504       O  0.20739670  0.58353729  0.18289273    -0.59980
H2505       H  0.17931516  0.54112063  0.10761630     0.16950
O2506       O  0.20676533  0.57157859  0.07449507    -0.60080
H2507       H  0.22140751  0.55840228  0.06980133     0.43950
H2508       H  0.19601843  0.60005891  0.18613844     0.43900
C2509       C  0.15225035  0.55520697  0.17956266    -0.05160
C2510       C  0.12713845  0.56465334  0.17002159    -0.32590
C2511       C  0.10875495  0.57844488  0.18663995     0.36660
C2512       C  0.11518684  0.58264701  0.21330751    -0.05520
C2513       C  0.13970162  0.57220633  0.22308632    -0.32490
C2514       C  0.15823890  0.55857112  0.20656971     0.36570
H2515       H  0.12217575  0.56206539  0.14942706     0.16940
O2516       O  0.08550590  0.58956774  0.17621346    -0.59980
H2517       H  0.14540028  0.57644306  0.24324895     0.16950
O2518       O  0.18311391  0.55063844  0.21635880    -0.60080
H2519       H  0.17987501  0.54251002  0.23401936     0.43950
H2520       H  0.07117794  0.57583532  0.17975127     0.43900
C2521       C  0.11872622  0.46263811  0.20664630    -0.05160
C2522       C  0.11401395  0.46542029  0.17941468    -0.32590
C2523       C  0.13015150  0.48301344  0.16376431     0.36660
C2524       C  0.15272191  0.49636548  0.17486995    -0.05520
C2525       C  0.15674630  0.49397421  0.20202412    -0.32490
C2526       C  0.13884023  0.47927359  0.21806725     0.36570
H2527       H  0.09923817  0.45240898  0.16996801     0.16940
O2528       O  0.12477921  0.48549197  0.13742225    -0.59980
H2529       H  0.17465200  0.50250195  0.21080707     0.16950
O2530       O  0.14391546  0.47755030  0.24460715    -0.60080
H2531       H  0.16054565  0.46610084  0.24638755     0.43950
H2532       H  0.11458731  0.50300325  0.13563413     0.43900
C2533       C  0.19577685  0.49919682  0.14578035    -0.05160
C2534       C  0.19225346  0.48183076  0.12397942    -0.32590
C2535       C  0.21474871  0.46908827  0.11155349     0.36660
C2536       C  0.24132404  0.47357342  0.12094693    -0.05520
C2537       C  0.24458505  0.49125009  0.14253615    -0.32490
C2538       C  0.22231734  0.50343922  0.15512104     0.36570
H2539       H  0.17209476  0.47814860  0.11646195     0.16940
O2540       O  0.21035979  0.45119478  0.09128271    -0.59980
H2541       H  0.26468549  0.49515919  0.15022434     0.16950
O2542       O  0.22675396  0.51939264  0.17684701    -0.60080
H2543       H  0.22480055  0.50682432  0.19210933     0.43950
H2544       H  0.20659991  0.46292424  0.07571648     0.43900
C2545       C  0.14358561  0.18648529  0.53273573    -0.05160
C2546       C  0.14901813  0.21469024  0.53297240    -0.32590
C2547       C  0.13385327  0.23331131  0.54826476     0.36660
C2548       C  0.11382272  0.22396734  0.56600576    -0.05520
C2549       C  0.10807811  0.19566185  0.56608705    -0.32490
C2550       C  0.12225717  0.17719337  0.54925765     0.36570
H2551       H  0.16633518  0.22245733  0.52270231     0.16940
O2552       O  0.13995741  0.26077029  0.54718817    -0.59980
H2553       H  0.09356352  0.18762724  0.58014402     0.16950
O2554       O  0.11593219  0.14988480  0.55011965    -0.60080
H2555       H  0.10380905  0.14692359  0.53486194     0.43950
H2556       H  0.15962026  0.26221837  0.55101571     0.43900
C2557       C  0.17834315  0.14586310  0.53120354    -0.05160
C2558       C  0.17075763  0.11812672  0.53171340    -0.32590
C2559       C  0.18765495  0.09806508  0.54332987     0.36660
C2560       C  0.21290685  0.10535757  0.55439529    -0.05520
C2561       C  0.22153284  0.13265263  0.55135186    -0.32490
C2562       C  0.20423530  0.15285218  0.54069762     0.36570
H2563       H  0.15138534  0.11212295  0.52359692     0.16940
O2564       O  0.17808833  0.07190772  0.54632831    -0.59980
H2565       H  0.24036133  0.13908175  0.56035174     0.16950
O2566       O  0.21269601  0.17958246  0.54003414    -0.60080
H2567       H  0.20531512  0.18796932  0.55633154     0.43950
H2568       H  0.18497327  0.06179383  0.53075464     0.43900
C2569       C  0.18396143  0.14908669  0.47604538    -0.05160
C2570       C  0.17328292  0.12445589  0.46637034    -0.32590
C2571       C  0.18996094  0.10510874  0.45340412     0.36660
C2572       C  0.21792048  0.11027416  0.44932335    -0.05520
C2573       C  0.22904220  0.13329010  0.46172384    -0.32490
C2574       C  0.21240388  0.15275705  0.47452579     0.36570
H2575       H  0.15171649  0.12059325  0.46817847     0.16940
O2576       O  0.17810444  0.08297755  0.44163827    -0.59980
H2577       H  0.25028095  0.13807399  0.45861053     0.16950
O2578       O  0.22422017  0.17557298  0.48501288    -0.60080
H2579       H  0.23158255  0.18598121  0.46979454     0.43950
H2580       H  0.18038798  0.06769191  0.45437331     0.43900
C2581       C  0.13203665  0.23761405  0.44385441    -0.05160
C2582       C  0.15602004  0.23993744  0.45878874    -0.32590
C2583       C  0.16750901  0.21772253  0.47230414     0.36660
C2584       C  0.15348656  0.19278229  0.47425617    -0.05520
C2585       C  0.12852592  0.19044772  0.46078494    -0.32490
C2586       C  0.11807489  0.21239455  0.44522344     0.36570
H2587       H  0.16700272  0.25909291  0.45904738     0.16940
O2588       O  0.19307062  0.22019582  0.48286223    -0.59980
H2589       H  0.11754486  0.17129918  0.46170089     0.16950
O2590       O  0.09482194  0.20859292  0.43099589    -0.60080
H2591       H  0.10107031  0.20220445  0.41347066     0.43950
H2592       H  0.19434599  0.23866010  0.49090077     0.43900
loop_ 
_geom_bond_atom_site_label_1 
_geom_bond_atom_site_label_2 
_geom_bond_distance 
_geom_bond_site_symmetry_2 
_ccdc_geom_bond_type 
C1            C2   1.380       .  D
C1         C2569   1.516       .  S
C1         C2584   1.511       .  S
C2         C2545   1.527       .  S
C2         C2557   1.505       .  S
C3            C4   1.375       .  D
C3         C2524   1.506       .  S
C3         C2533   1.504       .  S
C4         C2500   1.516       .  S
C4         C2509   1.501       .  S
C5            C6   1.382       .  D
C5         C2449   1.533       .  S
C5         C2464   1.525       .  S
C6         C2473   1.507       .  S
C6         C2488   1.513       .  S
C7            C8   1.385       .  D
C7         C2401   1.510       .  S
C7         C2413   1.501       .  S
C8         C2428   1.512       .  S
C8         C2437   1.524       .  S
C9           C10   1.393       .  D
C9         C2356   1.527       .  S
C9         C2365   1.515       .  S
C10        C2377   1.527       .  S
C10        C2392   1.511       .  S
C11          C12   1.379       .  D
C11        C2329   1.517       .  S
C11        C2344   1.501       .  S
C12        C2305   1.505       .  S
C12        C2317   1.508       .  S
C13          C14   1.369       .  D
C13        C2281   1.516       .  S
C13        C2293   1.498       .  S
C14        C2257   1.517       .  S
C14        C2269   1.503       .  S
C15          C16   1.385       .  D
C15        C2233   1.515       .  S
C15        C2245   1.526       .  S
C16        C2209   1.497       .  S
C16        C2224   1.503       .  S
C17          C18   1.375       .  D
C17        C2185   1.509       .  S
C17        C2197   1.516       .  S
C18        C2161   1.511       .  S
C18        C2173   1.502       .  S
C19          C20   1.381       .  D
C19        C2137   1.529       .  S
C19        C2152   1.518       .  S
C20        C2113   1.519       .  S
C20        C2125   1.511       .  S
C21          C22   1.390       .  D
C21        C2065   1.539       .  S
C21        C2077   1.522       .  S
C22        C2089   1.509       .  S
C22        C2101   1.512       .  S
C23          C24   1.373       .  D
C23        C2041   1.500       .  S
C23        C2053   1.505       .  S
C24        C2017   1.510       .  S
C24        C2029   1.495       .  S
C25          C26   1.402       .  A
C25          C30   1.424       .  A
C25        C2032   1.493       .  S
C26          C27   1.386       .  A
C26          H31   1.085       .  S
C27          C28   1.389       .  A
C27        C2005   1.468       .  S
C28          C29   1.396       .  A
C28          H32   1.086       .  S
C29          C30   1.423       .  A
C29        C1993   1.485       .  S
C30          H33   1.082       .  S
C34          C35   1.399       .  A
C34          C39   1.422       .  A
C34        C2068   1.493       .  S
C35          C36   1.391       .  A
C35          H40   1.077       .  S
C36          C37   1.397       .  A
C36        C1981   1.489       .  S
C37          C38   1.398       .  A
C37          H41   1.080       .  S
C38          C39   1.424       .  A
C38        C1969   1.489       .  S
C39          H42   1.082       .  S
C43          C44   1.412       .  A
C43          C48   1.427       .  A
C43        C2080   1.502       .  S
C44          C45   1.405       .  A
C44          H49   1.083       .  S
C45          C46   1.390       .  A
C45        C1957   1.516       .  S
C46          C47   1.404       .  A
C46          H50   1.079       .  S
C47          C48   1.431       .  A
C47        C1945   1.498       .  S
C48          H51   1.082       .  S
C52          C53   1.421       .  A
C52          C57   1.403       .  A
C52        C1921   1.501       .  S
C53          C54   1.424       .  A
C53          H58   1.083       .  S
C54          C55   1.402       .  A
C54        C2308   1.490       .  S
C55          C56   1.395       .  A
C55          H59   1.085       .  S
C56          C57   1.401       .  A
C56        C1933   1.494       .  S
C57          H60   1.080       .  S
C61          C62   1.400       .  A
C61          C66   1.418       .  A
C61        C2320   1.485       .  S
C62          C63   1.393       .  A
C62          H67   1.084       .  S
C63          C64   1.393       .  A
C63        C1909   1.477       .  S
C64          C65   1.397       .  A
C64          H68   1.084       .  S
C65          C66   1.418       .  A
C65        C1897   1.482       .  S
C66          H69   1.083       .  S
C70          C71   1.394       .  A
C70          C75   1.420       .  A
C70        C2020   1.485       .  S
C71          C72   1.381       .  A
C71          H76   1.087       .  S
C72          C73   1.384       .  A
C72        C1885   1.451       .  S
C73          C74   1.401       .  A
C73          H77   1.085       .  S
C74          C75   1.424       .  A
C74        C1873   1.481       .  S
C75          H78   1.082       .  S
O79         Mg81   2.124       .  S
O79         Mg87   2.141       .  S
O79         C114   1.242       .  S
C80         H119   1.081       .  S
C80          O93   1.236       .  S
C80         O117   1.271       .  A
Mg81        O110   2.151       .  S
Mg81        O125   2.228       .  S
Mg81        O121   2.209       .  S
Mg81         O92   2.288       .  S
O82        Mg124   2.151       .  S
O82        Mg107   2.108       .  S
O82         C103   1.240       .  S
O83         C114   1.278       .  A
O83        Mg107   2.332       .  S
C84        C1912   1.449       .  S
C84          O86   1.265       .  A
C84          O98   1.261       .  A
O85         C113   1.273       .  A
O85         Mg87   2.316       .  S
O86        Mg118   2.257       .  S
Mg87         O93   2.114       .  S
Mg87        O101   2.228       .  S
Mg87         O89   2.217       .  S
C88        C1936   1.473       .  S
C88         O126   1.270       .  A
C88          O94   1.273       .  A
O89          C96   1.254       .  A
H90         C103   1.081       .  S
C91         H116   1.081       .  S
C91         O105   1.241       .  S
C91         O106   1.274       .  A
O92         C115   1.266       .  A
O93        Mg107   2.162       .  S
O94        Mg124   2.287       .  S
C95        C1960   1.479       .  S
C95         O108   1.269       .  A
C95         O100   1.264       .  A
C96        C1984   1.468       .  S
C96         O123   1.262       .  A
Mg97        O104   2.111       .  S
Mg97        O105   2.104       .  S
Mg97         O98   2.257       .  S
Mg97         O99   2.305       .  S
Mg97        O126   2.240       .  S
O99         C103   1.274       .  A
O100       Mg107   2.230       .  S
O101        C120   1.256       .  A
O102        C122   1.268       .  A
O102       Mg118   2.269       .  S
O104       Mg118   2.151       .  S
O104        C115   1.234       .  S
O105       Mg124   2.090       .  S
O106       Mg118   2.308       .  S
Mg107       O123   2.271       .  S
O108       Mg124   2.251       .  S
H109        C114   1.081       .  S
O110       Mg118   2.125       .  S
O110        C113   1.237       .  S
H111        C113   1.081       .  S
H112        C115   1.081       .  S
O117       Mg124   2.308       .  S
C120       C2008   1.462       .  S
C120        O125   1.261       .  A
O121        C122   1.265       .  A
C122       C1888   1.448       .  S
C127        C128   1.372   1_556  D
C127       C1972   1.506       .  S
C127       C1996   1.503       .  S
C128       C1849   1.498       .  S
C128       C1861   1.511       .  S
C129        C130   1.368       .  D
C129       C1876   1.496       .  S
C129       C1900   1.497       .  S
C130       C1825   1.494       .  S
C130       C1837   1.504       .  S
C131        C132   1.391   1_655  D
C131       C1924   1.544       .  S
C131       C1948   1.516       .  S
C132       C1801   1.510       .  S
C132       C1816   1.501       .  S
C133        C134   1.396       .  A
C133        C138   1.432       .  A
C133       C2104   1.494       .  S
C134        C135   1.386       .  A
C134        H139   1.086       .  S
C135        C136   1.400       .  A
C135       C1789   1.482       .  S
C136        C137   1.398       .  A
C136        H140   1.078       .  S
C137        C138   1.430       .  A
C137       C1777   1.511       .  S
C138        H141   1.082       .  S
C142        C143   1.401       .  A
C142        C147   1.431       .  A
C142       C2260   1.504       .  S
C143        C144   1.399       .  A
C143        H148   1.085       .  S
C144        C145   1.390       .  A
C144       C1765   1.475       .  S
C145        C146   1.395       .  A
C145        H149   1.085       .  S
C146        C147   1.431       .  A
C146       C1753   1.499       .  S
C147        H150   1.082       .  S
C151        C152   1.426       .  A
C151        C156   1.392       .  A
C151       C1729   1.493       .  S
C152        C153   1.429       .  A
C152        H157   1.082       .  S
C153        C154   1.401       .  A
C153       C2092   1.493       .  S
C154        C155   1.392       .  A
C154        H158   1.085       .  S
C155        C156   1.389       .  A
C155       C1741   1.464       .  S
C156        H159   1.086       .  S
C160        C161   1.403       .  A
C160        C165   1.420       .  A
C160       C2368   1.492       .  S
C161        C162   1.389       .  A
C161        H166   1.083       .  S
C162        C163   1.396       .  A
C162       C1717   1.483       .  S
C163        C164   1.401       .  A
C163        H167   1.083       .  S
C164        C165   1.420       .  A
C164       C1705   1.491       .  S
C165        H168   1.083       .  S
C169        C170   1.425       .  A
C169        C174   1.414       .  A
C169       C2353   1.510       .  S
C170        C171   1.422       .  A
C170        H175   1.082       .  S
C171        C172   1.396       .  A
C171       C1828   1.481       .  S
C172        C173   1.381       .  A
C172        H176   1.087       .  S
C173        C174   1.395       .  A
C173       C1693   1.472       .  S
C174        H177   1.079       .  S
C178        C179   1.422       .  A
C178        C183   1.402       .  A
C178       C1840   1.497       .  S
C179        C180   1.424       .  A
C179        H184   1.082       .  S
C180        C181   1.400       .  A
C180       C2272   1.489       .  S
C181        C182   1.389       .  A
C181        H185   1.085       .  S
C182        C183   1.398       .  A
C182       C1681   1.482       .  S
C183        H186   1.081       .  S
O187       Mg189   2.096       .  S
O187       Mg195   2.130       .  S
O187        C222   1.233       .  S
C188        H227   1.081       .  S
C188        O201   1.235       .  S
C188        O225   1.268       .  A
Mg189       O218   2.137       .  S
Mg189       O233   2.227       .  S
Mg189       O229   2.246       .  S
Mg189       O200   2.303       .  S
O190       Mg232   2.160       .  S
O190       Mg215   2.110       .  S
O190        C211   1.236       .  S
O191        C222   1.264       .  A
O191       Mg215   2.270       .  S
C192       C1768   1.458       .  S
C192        O194   1.257       .  A
C192        O206   1.246       .  A
O193        C221   1.276       .  A
O193       Mg195   2.324       .  S
O194       Mg226   2.317       .  S
Mg195       O201   2.124       .  S
Mg195       O209   2.281       .  S
Mg195       O197   2.289       .  S
C196       C1684   1.436       .  S
C196        O234   1.257       .  A
C196        O202   1.269       .  A
O197        C204   1.274       .  A
H198        C211   1.081       .  S
C199        H224   1.081       .  S
C199        O213   1.243       .  S
C199        O214   1.281       .  A
O200        C223   1.272       .  A
O201       Mg215   2.180       .  S
O202       Mg232   2.265       .  S
C203       C1696   1.450       .  S
C203        O216   1.273       .  A
C203        O208   1.265       .  A
C204       C1720   1.452       .  S
C204        O231   1.268       .  A
Mg205       O212   2.102       .  S
Mg205       O213   2.150       .  S
Mg205       O206   2.212       .  S
Mg205       O207   2.304       .  S
Mg205       O234   2.178       .  S
O207        C211   1.270       .  A
O208       Mg215   2.215       .  S
O209        C228   1.268       .  A
O210        C230   1.264       .  A
O210       Mg226   2.225       .  S
O212       Mg226   2.173       .  S
O212        C223   1.237       .  S
O213       Mg232   2.134       .  S
O214       Mg226   2.354       .  S
Mg215       O231   2.230       .  S
O216       Mg232   2.285       .  S
H217        C222   1.081       .  S
O218       Mg226   2.110       .  S
O218        C221   1.240       .  S
H219        C221   1.081       .  S
H220        C223   1.081       .  S
O225       Mg232   2.290       .  S
C228       C1744   1.462       .  S
C228        O233   1.259       .  A
O229        C230   1.267       .  A
C230       C1792   1.473       .  S
C235        C236   1.417       .  A
C235        C240   1.400       .  A
C235       C2044   1.485       .  S
C236        C237   1.416       .  A
C236        H241   1.083       .  S
C237        C238   1.400       .  A
C237       C1657   1.483       .  S
C238        C239   1.393       .  A
C238        H242   1.084       .  S
C239        C240   1.399       .  A
C239       C1669   1.484       .  S
C240        H243   1.083       .  S
C244        C245   1.398       .  A
C244        C249   1.421       .  A
C244       C2221   1.498       .  S
C245        C246   1.391       .  A
C245        H250   1.084       .  S
C246        C247   1.400       .  A
C246       C1645   1.493       .  S
C247        C248   1.418       .  A
C247        H251   1.073       .  S
C248        C249   1.431       .  A
C248       C1633   1.530       .  S
C249        H252   1.078       .  S
C253        C254   1.420       .  A
C253        C258   1.409       .  A
C253       C1609   1.496       .  S
C254        C255   1.423       .  A
C254        H259   1.083       .  S
C255        C256   1.398       .  A
C255       C2056   1.483       .  S
C256        C257   1.389       .  A
C256        H260   1.087       .  S
C257        C258   1.393       .  A
C257       C1621   1.472       .  S
C258        H261   1.083       .  S
C262        C263   1.416       .  A
C262        C267   1.397       .  A
C262       C1588   1.488       .  S
C263        C264   1.418       .  A
C263        H268   1.083       .  S
C264        C265   1.409       .  A
C264       C2404   1.497       .  S
C265        C266   1.408       .  A
C265        H269   1.082       .  S
C266        C267   1.397       .  A
C266       C1597   1.493       .  S
C267        H270   1.085       .  S
C271        C272   1.392       .  A
C271        C276   1.420       .  A
C271       C1804   1.476       .  S
C272        C273   1.376       .  A
C272        H277   1.087       .  S
C273        C274   1.388       .  A
C273       C1573   1.456       .  S
C274        C275   1.402       .  A
C274        H278   1.085       .  S
C275        C276   1.424       .  A
C275       C2212   1.490       .  S
C276        H279   1.082       .  S
C280        C281   1.410       .  A
C280        C285   1.423       .  A
C280       C1813   1.490       .  S
C281        C282   1.404       .  A
C281        H286   1.082       .  S
C282        C283   1.387       .  A
C282       C1561   1.487       .  S
C283        C284   1.394       .  A
C283        H287   1.083       .  S
C284        C285   1.415       .  A
C284       C2416   1.493       .  S
C285        H288   1.083       .  S
O289       Mg291   2.116       .  S
O289       Mg297   2.097       .  S
O289        C324   1.240       .  S
C290        H329   1.079       .  S
C290        O303   1.234       .  S
C290        O327   1.265       .  A
Mg291       O320   2.110       .  S
Mg291       O335   2.266       .  S
Mg291       O331   2.233       .  S
Mg291       O302   2.310       .  S
O292       Mg334   2.151       .  S
O292       Mg317   2.132       .  S
O292        C313   1.242       .  S
O293        C324   1.276       .  A
O293       Mg317   2.328       .  S
C294       C1672   1.457       .  S
C294        O296   1.262       .  A
C294        O308   1.257       .  A
O295        C323   1.278       .  A
O295       Mg297   2.324       .  S
O296       Mg328   2.296       .  S
Mg297       O303   2.096       .  S
Mg297       O311   2.181       .  S
Mg297       O299   2.253       .  S
C298       C1624   1.468       .  S
C298        O336   1.262       .  A
C298        O304   1.263       .  A
O299        C306   1.252       .  A
H300        C313   1.081       .  S
C301        H326   1.081       .  S
C301        O315   1.242       .  S
C301        O316   1.280       .  A
O302        C325   1.269       .  A
O303       Mg317   2.140       .  S
O304       Mg334   2.238       .  S
C305       C1600   1.479       .  S
C305        O318   1.276       .  A
C305        O310   1.272       .  A
C306       C1564   1.461       .  S
C306        O333   1.267       .  A
Mg307       O314   2.126       .  S
Mg307       O315   2.146       .  S
Mg307       O308   2.250       .  S
Mg307       O309   2.338       .  S
Mg307       O336   2.254       .  S
O309        C313   1.279       .  A
O310       Mg317   2.270       .  S
O311        C330   1.260       .  A
O312        C332   1.272       .  A
O312       Mg328   2.318       .  S
O314       Mg328   2.173       .  S
O314        C325   1.235       .  S
O315       Mg334   2.158       .  S
O316       Mg328   2.343       .  S
Mg317       O333   2.322       .  S
O318       Mg334   2.279       .  S
H319        C324   1.081       .  S
O320       Mg328   2.125       .  S
O320        C323   1.242       .  S
H321        C323   1.081       .  S
H322        C325   1.081       .  S
O327       Mg334   2.277       .  S
C330       C1576   1.458       .  S
C330        O335   1.264       .  A
O331        C332   1.263       .  A
C332       C1648   1.479       .  S
C337        C338   1.386       .  D
C337       C1540   1.520       .  S
C337       C1549   1.511       .  S
C338       C1585   1.509   1_545  S
C338       C1612   1.516   1_545  S
C339        C340   1.401       .  A
C339        C344   1.423       .  A
C339       C2296   1.486       .  S
C340        C341   1.395       .  A
C340        H345   1.084       .  S
C341        C342   1.395       .  A
C341       C1525   1.487       .  S
C342        C343   1.403       .  A
C342        H346   1.080       .  S
C343        C344   1.423       .  A
C343       C1513   1.515       .  S
C344        H347   1.080       .  S
C348        C349   1.411       .  A
C348        C353   1.425       .  A
C348       C2236   1.511       .  S
C349        C350   1.395       .  A
C349        H354   1.080       .  S
C350        C351   1.384       .  A
C350       C1501   1.469       .  S
C351        C352   1.400       .  A
C351        H355   1.086       .  S
C352        C353   1.424       .  A
C352       C1489   1.487       .  S
C353        H356   1.082       .  S
C357        C358   1.430       .  A
C357        C362   1.407       .  A
C357       C1552   1.519       .  S
C358        C359   1.430       .  A
C358        H363   1.082       .  S
C359        C360   1.395       .  A
C359       C2560   1.492       .  S
C360        C361   1.384       .  A
C360        H364   1.087       .  S
C361        C362   1.401       .  A
C361       C1480   1.475       .  S
C362        H365   1.082       .  S
C366        C367   1.437       .  A
C366        C371   1.402       .  A
C366       C2284   1.504       .  S
C367        C368   1.435       .  A
C367        H372   1.082       .  S
C368        C369   1.397       .  A
C368       C1537   1.505       .  S
C369        C370   1.378       .  A
C369        H373   1.087       .  S
C370        C371   1.385       .  A
C370       C1468   1.451       .  S
C371        H374   1.085       .  S
C375        C376   1.401       .  A
C375        C380   1.432       .  A
C375       C2548   1.508       .  S
C376        C377   1.397       .  A
C376        H381   1.085       .  S
C377        C378   1.392       .  A
C377       C1456   1.481       .  S
C378        C379   1.396       .  A
C378        H382   1.083       .  S
C379        C380   1.432       .  A
C379       C1441   1.501       .  S
C380        H383   1.082       .  S
C384        C385   1.393       .  A
C384        C389   1.425       .  A
C384       C2248   1.492       .  S
C385        C386   1.377       .  A
C385        H390   1.086       .  S
C386        C387   1.387       .  A
C386       C1429   1.457       .  S
C387        C388   1.400       .  A
C387        H391   1.085       .  S
C388        C389   1.430       .  A
C388       C1420   1.487       .  S
C389        H392   1.082       .  S
O393       Mg395   2.074       .  S
O393       Mg401   2.132       .  S
O393        C428   1.239       .  S
C394        H433   1.081       .  S
C394        O407   1.237       .  S
C394        O431   1.269       .  A
Mg395       O424   2.171       .  S
Mg395       O439   2.213       .  S
Mg395       O435   2.223       .  S
Mg395       O406   2.285       .  S
O396       Mg438   2.142       .  S
O396       Mg421   2.144       .  S
O396        C417   1.236       .  S
O397        C428   1.273       .  A
O397       Mg421   2.313       .  S
C398       C1528   1.454       .  S
C398        O400   1.262       .  A
C398        O412   1.280       .  A
O399        C427   1.270       .  A
O399       Mg401   2.296       .  S
O400       Mg432   2.188       .  S
Mg401       O407   2.115       .  S
Mg401       O415   2.254       .  S
Mg401       O403   2.234       .  S
C402       C1504   1.452       .  S
C402        O440   1.273       .  A
C402        O408   1.267       .  A
O403        C410   1.254       .  A
H404        C417   1.081       .  S
C405        H430   1.081       .  S
C405        O419   1.233       .  S
C405        O420   1.264       .  A
O406        C429   1.268       .  A
O407       Mg421   2.151       .  S
O408       Mg438   2.253       .  S
C409       C1432   1.459       .  S
C409        O422   1.266       .  A
C409        O414   1.264       .  A
C410       C1453   1.455       .  S
C410        O437   1.264       .  A
Mg411       O418   2.114       .  S
Mg411       O419   2.117       .  S
Mg411       O412   2.330       .  S
Mg411       O413   2.323       .  S
Mg411       O440   2.274       .  S
O413        C417   1.273       .  A
O414       Mg421   2.232       .  S
O415        C434   1.269       .  A
O416        C436   1.259       .  A
O416       Mg432   2.190       .  S
O418       Mg432   2.174       .  S
O418        C429   1.236       .  S
O419       Mg438   2.107       .  S
O420       Mg432   2.275       .  S
Mg421       O437   2.300       .  S
O422       Mg438   2.223       .  S
H423        C428   1.081       .  S
O424       Mg432   2.098       .  S
O424        C427   1.237       .  S
H425        C427   1.081       .  S
H426        C429   1.081       .  S
O431       Mg438   2.295       .  S
C434       C1477   1.461       .  S
C434        O439   1.264       .  A
O435        C436   1.263       .  A
C436       C1465   1.438       .  S
C441        C442   1.371   1_655  D
C441       C1708   1.496       .  S
C441       C1732   1.518       .  S
C442       C1417   1.501       .  S
C442       C1444   1.514       .  S
C443        C444   1.371   1_554  D
C443       C1396   1.502       .  S
C443       C1405   1.495       .  S
C444       C1492   1.501       .  S
C444       C1516   1.505       .  S
C445        C446   1.379       .  D
C445       C1369   1.514       .  S
C445       C1381   1.503       .  S
C446       C1345   1.524   1_545  S
C446       C1357   1.498   1_545  S
C447        C448   1.422       .  A
C447        C452   1.409       .  A
C447       C2536   1.502       .  S
C448        C449   1.418       .  A
C448        H453   1.082       .  S
C449        C450   1.395       .  A
C449       C1408   1.484       .  S
C450        C451   1.386       .  A
C450        H454   1.085       .  S
C451        C452   1.401       .  A
C451       C1333   1.479       .  S
C452        H455   1.083       .  S
C456        C457   1.427       .  A
C456        C461   1.401       .  A
C456       C2476   1.488       .  S
C457        C458   1.424       .  A
C457        H462   1.082       .  S
C458        C459   1.401       .  A
C458       C1393   1.514       .  S
C459        C460   1.393       .  A
C459        H463   1.081       .  S
C460        C461   1.393       .  A
C460       C1321   1.480       .  S
C461        H464   1.085       .  S
C465        C466   1.426       .  A
C465        C470   1.411       .  A
C465       C2485   1.497       .  S
C466        C467   1.420       .  A
C466        H471   1.083       .  S
C467        C468   1.387       .  A
C467       C1384   1.482       .  S
C468        C469   1.382       .  A
C468        H472   1.087       .  S
C469        C470   1.401       .  A
C469       C1309   1.472       .  S
C470        H473   1.084       .  S
C474        C475   1.436       .  A
C474        C479   1.411       .  A
C474       C1372   1.519       .  S
C475        C476   1.431       .  A
C475        H480   1.081       .  S
C476        C477   1.390       .  A
C476       C2572   1.492       .  S
C477        C478   1.377       .  A
C477        H481   1.088       .  S
C478        C479   1.392       .  A
C478       C1300   1.455       .  S
C479        H482   1.084       .  S
C483        C484   1.406       .  A
C483        C488   1.430       .  A
C483       C2581   1.517       .  S
C484        C485   1.391       .  A
C484        H489   1.083       .  S
C485        C486   1.387       .  A
C485       C1288   1.480       .  S
C486        C487   1.401       .  A
C486        H490   1.084       .  S
C487        C488   1.431       .  A
C487       C1276   1.498       .  S
C488        H491   1.082       .  S
C492        C493   1.396       .  A
C492        C497   1.425       .  A
C492       C2521   1.488       .  S
C493        C494   1.385       .  A
C493        H498   1.086       .  S
C494        C495   1.394       .  A
C494       C1261   1.473       .  S
C495        C496   1.406       .  A
C495        H499   1.084       .  S
C496        C497   1.427       .  A
C496       C1249   1.504       .  S
C497        H500   1.082       .  S
O501       Mg503   2.121       .  S
O501       Mg509   2.119       .  S
O501        C536   1.236       .  S
C502        H541   1.081       .  S
C502        O515   1.237       .  S
C502        O539   1.270       .  A
Mg503       O532   2.124       .  S
Mg503       O547   2.269       .  S
Mg503       O543   2.229       .  S
Mg503       O514   2.306       .  S
O504       Mg546   2.138       .  S
O504       Mg529   2.112       .  S
O504        C525   1.240       .  S
O505        C536   1.269       .  A
O505       Mg529   2.291       .  S
C506       C1285   1.453       .  S
C506        O508   1.265       .  A
C506        O520   1.262       .  A
O507        C535   1.272       .  A
O507       Mg509   2.317       .  S
O508       Mg540   2.276       .  S
Mg509       O515   2.102       .  S
Mg509       O523   2.254       .  S
Mg509       O511   2.311       .  S
C510       C1297   1.461       .  S
C510        O548   1.267       .  A
C510        O516   1.257       .  A
O511        C518   1.276       .  A
H512        C525   1.081       .  S
C513        H538   1.081       .  S
C513        O527   1.240       .  S
C513        O528   1.276       .  A
O514        C537   1.272       .  A
O515       Mg529   2.162       .  S
O516       Mg546   2.248       .  S
C517       C1312   1.464       .  S
C517        O530   1.266       .  A
C517        O522   1.261       .  A
C518       C1324   1.449       .  S
C518        O545   1.261       .  A
Mg519       O526   2.112       .  S
Mg519       O527   2.114       .  S
Mg519       O520   2.269       .  S
Mg519       O521   2.332       .  S
Mg519       O548   2.272       .  S
O521        C525   1.277       .  A
O522       Mg529   2.220       .  S
O523        C542   1.271       .  A
O524        C544   1.265       .  A
O524       Mg540   2.263       .  S
O526       Mg540   2.156       .  S
O526        C537   1.240       .  S
O527       Mg546   2.125       .  S
O528       Mg540   2.325       .  S
Mg529       O545   2.194       .  S
O530       Mg546   2.254       .  S
H531        C536   1.081       .  S
O532       Mg540   2.148       .  S
O532        C535   1.236       .  S
H533        C535   1.081       .  S
H534        C537   1.080       .  S
O539       Mg546   2.299       .  S
C542       C1336   1.473       .  S
C542        O547   1.267       .  A
O543        C544   1.262       .  A
C544       C1264   1.467       .  S
C549        C550   1.378       .  D
C549       C1225   1.499   1_455  S
C549       C1237   1.517   1_455  S
C550       C1252   1.507       .  S
C550       C1273   1.507       .  S
C551        C552   1.397       .  D
C551       C1201   1.514   1_556  S
C551       C1780   1.510       .  S
C552       C1213   1.515   1_556  S
C552       C1756   1.513       .  S
C553        C554   1.404       .  A
C553        C558   1.426       .  A
C553       C1240   1.521       .  S
C554        C555   1.400       .  A
C554        H559   1.074       .  S
C555        C556   1.404       .  A
C555       C1189   1.511       .  S
C556        C557   1.401       .  A
C556        H560   1.078       .  S
C557        C558   1.428       .  A
C557       C2149   1.498       .  S
C558        H561   1.082       .  S
C562        C563   1.423       .  A
C562        C567   1.415       .  A
C562       C2380   1.515       .  S
C563        C564   1.420       .  A
C563        H568   1.082       .  S
C564        C565   1.396       .  A
C564       C1228   1.486       .  S
C565        C566   1.389       .  A
C565        H569   1.085       .  S
C566        C567   1.404       .  A
C566       C1180   1.491       .  S
C567        H570   1.077       .  S
C571        C572   1.436       .  A
C571        C576   1.395       .  A
C571       C2461   1.502       .  S
C572        C573   1.437       .  A
C572        H577   1.082       .  S
C573        C574   1.402       .  A
C573       C1216   1.522       .  S
C574        C575   1.396       .  A
C574        H578   1.080       .  S
C575        C576   1.382       .  A
C575       C1165   1.481       .  S
C576        H579   1.084       .  S
C580        C581   1.431       .  A
C580        C585   1.394       .  A
C580       C2140   1.505       .  S
C581        C582   1.436       .  A
C581        H586   1.082       .  S
C582        C583   1.397       .  A
C582       C1204   1.499       .  S
C583        C584   1.390       .  A
C583        H587   1.086       .  S
C584        C585   1.396       .  A
C584       C1153   1.474       .  S
C585        H588   1.084       .  S
C589        C590   1.440       .  A
C589        C594   1.404       .  A
C589       C1129   1.507       .  S
C590        C591   1.438       .  A
C590        H595   1.082       .  S
C591        C592   1.403       .  A
C591       C2452   1.516       .  S
C592        C593   1.387       .  A
C592        H596   1.084       .  S
C593        C594   1.388       .  A
C593       C1141   1.468       .  S
C594        H597   1.086       .  S
C598        C599   1.398       .  A
C598        C603   1.423       .  A
C598       C2389   1.495       .  S
C599        C600   1.384       .  A
C599        H604   1.085       .  S
C600        C601   1.395       .  A
C600       C1120   1.471       .  S
C601        C602   1.400       .  A
C601        H605   1.084       .  S
C602        C603   1.423       .  A
C602       C1108   1.488       .  S
C603        H606   1.082       .  S
O607       Mg609   2.115       .  S
O607       Mg615   2.110       .  S
O607        C642   1.243       .  S
C608        H647   1.081       .  S
C608        O621   1.237       .  S
C608        O645   1.267       .  A
Mg609       O638   2.129       .  S
Mg609       O653   2.279       .  S
Mg609       O649   2.180       .  S
Mg609       O620   2.293       .  S
O610       Mg652   2.133       .  S
O610       Mg635   2.127       .  S
O610        C631   1.236       .  S
O611        C642   1.279       .  A
O611       Mg635   2.333       .  S
C612       C1177   1.480       .  S
C612        O614   1.271       .  A
C612        O626   1.284       .  A
O613        C641   1.274       .  A
O613       Mg615   2.325       .  S
O614       Mg646   2.210       .  S
Mg615       O621   2.081       .  S
Mg615       O629   2.210       .  S
Mg615       O617   2.224       .  S
C616       C1192   1.470       .  S
C616        O654   1.280       .  A
C616        O622   1.260       .  A
O617        C624   1.256       .  A
H618        C631   1.081       .  S
C619        H644   1.081       .  S
C619        O633   1.232       .  S
C619        O634   1.263       .  A
O620        C643   1.269       .  A
O621       Mg635   2.166       .  S
O622       Mg652   2.174       .  S
C623       C1156   1.453       .  S
C623        O636   1.258       .  A
C623        O628   1.262       .  A
C624       C1168   1.454       .  S
C624        O651   1.261       .  A
Mg625       O632   2.130       .  S
Mg625       O633   2.142       .  S
Mg625       O626   2.337       .  S
Mg625       O627   2.294       .  S
Mg625       O654   2.323       .  S
O627        C631   1.270       .  A
O628       Mg635   2.264       .  S
O629        C648   1.264       .  A
O630        C650   1.272       .  A
O630       Mg646   2.295       .  S
O632       Mg646   2.163       .  S
O632        C643   1.235       .  S
O633       Mg652   2.084       .  S
O634       Mg646   2.270       .  S
Mg635       O651   2.272       .  S
O636       Mg652   2.209       .  S
H637        C642   1.081       .  S
O638       Mg646   2.134       .  S
O638        C641   1.237       .  S
H639        C641   1.081       .  S
H640        C643   1.081       .  S
O645       Mg652   2.288       .  S
C648       C1144   1.447       .  S
C648        O653   1.262       .  A
O649        C650   1.261       .  A
C650       C1117   1.456       .  S
C655        C656   1.366       .  D
C655       C1084   1.512   1_545  S
C655       C1093   1.495   1_545  S
C656       C1105   1.499       .  S
C656       C1132   1.517       .  S
C657        C658   1.427       .  A
C657        C662   1.397       .  A
C657       C2332   1.518       .  S
C658        C659   1.434       .  A
C658        H663   1.082       .  S
C659        C660   1.406       .  A
C659       C1081   1.500       .  S
C660        C661   1.398       .  A
C660        H664   1.082       .  S
C661        C662   1.396       .  A
C661       C1069   1.498       .  S
C662        H665   1.076       .  S
C666        C667   1.420       .  A
C666        C671   1.394       .  A
C666       C2176   1.487       .  S
C667        C668   1.424       .  A
C667        H672   1.082       .  S
C668        C669   1.400       .  A
C668       C1096   1.482       .  S
C669        C670   1.390       .  A
C669        H673   1.085       .  S
C670        C671   1.387       .  A
C670       C1057   1.470       .  S
C671        H674   1.085       .  S
C675        C676   1.426       .  A
C675        C680   1.401       .  A
C675       C1033   1.494       .  S
C676        C677   1.427       .  A
C676        H681   1.082       .  S
C677        C678   1.395       .  A
C677       C2341   1.487       .  S
C678        C679   1.380       .  A
C678        H682   1.087       .  S
C679        C680   1.390       .  A
C679       C1045   1.453       .  S
C680        H683   1.085       .  S
C684        C685   1.401       .  A
C684        C689   1.431       .  A
C684       C2116   1.494       .  S
C685        C686   1.393       .  A
C685        H690   1.085       .  S
C686        C687   1.391       .  A
C686       C1021   1.482       .  S
C687        C688   1.396       .  A
C687        H691   1.081       .  S
C688        C689   1.429       .  A
C688       C1009   1.505       .  S
C689        H692   1.082       .  S
C693        C694   1.420       .  A
C693        C698   1.405       .  A
C693       C2164   1.498       .  S
C694        C695   1.419       .  A
C694        H699   1.083       .  S
C695        C696   1.395       .  A
C695       C1852   1.483       .  S
C696        C697   1.390       .  A
C696        H700   1.086       .  S
C697        C698   1.400       .  A
C697       C1000   1.479       .  S
C698        H701   1.082       .  S
C702        C703   1.405       .  A
C702        C707   1.425       .  A
C702       C2128   1.494       .  S
C703        C704   1.396       .  A
C703        H708   1.084       .  S
C704        C705   1.383       .  A
C704        C985   1.477       .  S
C705        C706   1.400       .  A
C705        H709   1.083       .  S
C706        C707   1.422       .  A
C706       C1864   1.501       .  S
C707        H710   1.082       .  S
O711       Mg713   2.107       .  S
O711       Mg719   2.101       .  S
O711        C746   1.243       .  S
C712        H751   1.081       .  S
C712        O725   1.235       .  S
C712        O749   1.269       .  A
Mg713       O742   2.116       .  S
Mg713       O757   2.240       .  S
Mg713       O753   2.214       .  S
Mg713       O724   2.299       .  S
O714       Mg756   2.121       .  S
O714       Mg739   2.180       .  S
O714        C735   1.238       .  S
O715        C746   1.280       .  A
O715       Mg739   2.342       .  S
C716        C988   1.466       .  S
C716        O718   1.265       .  A
C716        O730   1.273       .  A
O717        C745   1.274       .  A
O717       Mg719   2.322       .  S
O718       Mg750   2.223       .  S
Mg719       O725   2.094       .  S
Mg719       O733   2.236       .  S
Mg719       O721   2.240       .  S
C720        C997   1.473       .  S
C720        O758   1.268       .  A
C720        O726   1.268       .  A
O721        C728   1.255       .  A
H722        C735   1.081       .  S
C723        H748   1.081       .  S
C723        O737   1.241       .  S
C723        O738   1.277       .  A
O724        C747   1.265       .  A
O725       Mg739   2.146       .  S
O726       Mg756   2.265       .  S
C727       C1060   1.470       .  S
C727        O740   1.255       .  A
C727        O732   1.267       .  A
C728       C1072   1.471       .  S
C728        O755   1.265       .  A
Mg729       O736   2.070       .  S
Mg729       O737   2.110       .  S
Mg729       O730   2.290       .  S
Mg729       O731   2.329       .  S
Mg729       O758   2.229       .  S
O731        C735   1.275       .  A
O732       Mg739   2.299       .  S
O733        C752   1.266       .  A
O734        C754   1.266       .  A
O734       Mg750   2.309       .  S
O736       Mg750   2.127       .  S
O736        C747   1.234       .  S
O737       Mg756   2.129       .  S
O738       Mg750   2.321       .  S
Mg739       O755   2.330       .  S
O740       Mg756   2.215       .  S
H741        C746   1.081       .  S
O742       Mg750   2.144       .  S
O742        C745   1.238       .  S
H743        C745   1.081       .  S
H744        C747   1.081       .  S
O749       Mg756   2.312       .  S
C752       C1048   1.452       .  S
C752        O757   1.261       .  A
O753        C754   1.256       .  A
C754       C1024   1.472       .  S
C759        C760   1.379   1_455  D
C759        C961   1.505       .  S
C759        C973   1.505       .  S
C760       C1012   1.510       .  S
C760       C1036   1.516       .  S
C761        C762   1.409       .  A
C761        C766   1.401       .  A
C761       C1360   1.478       .  S
C762        C763   1.412       .  A
C762        H767   1.083       .  S
C763        C764   1.410       .  A
C763       C2440   1.503       .  S
C764        C765   1.410       .  A
C764        H768   1.080       .  S
C765        C766   1.402       .  A
C765        C949   1.512       .  S
C766        H769   1.077       .  S
C770        C771   1.427       .  A
C770        C775   1.408       .  A
C770       C1348   1.501       .  S
C771        C772   1.430       .  A
C771        H776   1.082       .  S
C772        C773   1.400       .  A
C772       C2188   1.495       .  S
C773        C774   1.387       .  A
C773        H777   1.086       .  S
C774        C775   1.391       .  A
C774        C937   1.471       .  S
C775        H778   1.083       .  S
C779        C780   1.417       .  A
C779        C784   1.402       .  A
C779        C913   1.496       .  S
C780        C781   1.420       .  A
C780        H785   1.083       .  S
C781        C782   1.407       .  A
C781       C2497   1.494       .  S
C782        C783   1.401       .  A
C782        H786   1.081       .  S
C783        C784   1.395       .  A
C783        C925   1.495       .  S
C784        H787   1.081       .  S
C788        C789   1.415       .  A
C788        C793   1.396       .  A
C788        C976   1.481       .  S
C789        C790   1.420       .  A
C789        H794   1.083       .  S
C790        C791   1.402       .  A
C790       C2512   1.478       .  S
C791        C792   1.392       .  A
C791        H795   1.085       .  S
C792        C793   1.380       .  A
C792        C901   1.464       .  S
C793        H796   1.086       .  S
C797        C798   1.426       .  A
C797        C802   1.409       .  A
C797        C964   1.498       .  S
C798        C799   1.421       .  A
C798        H803   1.083       .  S
C799        C800   1.401       .  A
C799       C2425   1.500       .  S
C800        C801   1.389       .  A
C800        H804   1.084       .  S
C801        C802   1.394       .  A
C801        C892   1.480       .  S
C802        H805   1.083       .  S
C806        C807   1.429       .  A
C806        C811   1.405       .  A
C806        C868   1.513       .  S
C807        C808   1.429       .  A
C807        H812   1.082       .  S
C808        C809   1.399       .  A
C808       C2200   1.493       .  S
C809        C810   1.389       .  A
C809        H813   1.086       .  S
C810        C811   1.392       .  A
C810        C880   1.466       .  S
C811        H814   1.083       .  S
O815       Mg817   2.147       .  S
O815       Mg823   2.156       .  S
O815        C850   1.241       .  S
C816        H855   1.080       .  S
C816        O829   1.237       .  S
C816        O853   1.267       .  A
Mg817       O846   2.168       .  S
Mg817       O861   2.241       .  S
Mg817       O857   2.305       .  S
Mg817       O828   2.287       .  S
O818       Mg860   2.135       .  S
O818       Mg843   2.129       .  S
O818        C839   1.240       .  S
O819        C850   1.278       .  A
O819       Mg843   2.332       .  S
C820        C889   1.459       .  S
C820        O822   1.267       .  A
C820        O834   1.259       .  A
O821        C849   1.277       .  A
O821       Mg823   2.321       .  S
O822       Mg854   2.288       .  S
Mg823       O829   2.124       .  S
Mg823       O837   2.232       .  S
Mg823       O825   2.260       .  S
C824        C904   1.466       .  S
C824        O862   1.265       .  A
C824        O830   1.264       .  A
O825        C832   1.258       .  A
H826        C839   1.081       .  S
C827        H852   1.081       .  S
C827        O841   1.240       .  S
C827        O842   1.275       .  A
O828        C851   1.267       .  A
O829       Mg843   2.179       .  S
O830       Mg860   2.263       .  S
C831        C928   1.476       .  S
C831        O844   1.266       .  A
C831        O836   1.270       .  A
C832        C877   1.456       .  S
C832        O859   1.263       .  A
Mg833       O840   2.124       .  S
Mg833       O841   2.100       .  S
Mg833       O834   2.270       .  S
Mg833       O835   2.318       .  S
Mg833       O862   2.210       .  S
O835        C839   1.276       .  A
O836       Mg843   2.280       .  S
O837        C856   1.261       .  A
O838        C858   1.270       .  A
O838       Mg854   2.256       .  S
O840       Mg854   2.148       .  S
O840        C851   1.236       .  S
O841       Mg860   2.126       .  S
O842       Mg854   2.322       .  S
Mg843       O859   2.307       .  S
O844       Mg860   2.246       .  S
H845        C850   1.081       .  S
O846       Mg854   2.120       .  S
O846        C849   1.241       .  S
H847        C849   1.081       .  S
H848        C851   1.079       .  S
O853       Mg860   2.289       .  S
C856        C940   1.465       .  S
C856        O861   1.267       .  A
O857        C858   1.276       .  A
C858        C952   1.489       .  S
C863        C864   1.395       .  D
C863        C865   1.521   1_556  S
C863       C1660   1.513       .  S
C864        C916   1.516   1_556  S
C864       C1636   1.521       .  S
C865        C866   1.403       .  A
C865        C870   1.425       .  A
C866        C867   1.401       .  A
C866        H871   1.079       .  S
C867        C868   1.422       .  A
C867        O872   1.370       .  S
C868        C869   1.402       .  A
C869        C870   1.412       .  A
C869        H873   1.083       .  S
C870        O874   1.371       .  S
O872        H876   0.992       .  S
O874        H875   0.991       .  S
C877        C878   1.392       .  A
C877        C882   1.407       .  A
C878        C879   1.379       .  A
C878        H883   1.077       .  S
C879        C880   1.407       .  A
C879        O884   1.372       .  S
C880        C881   1.405       .  A
C881        C882   1.407       .  A
C881        H885   1.083       .  S
C882        O886   1.370       .  S
O884        H888   0.992       .  S
O886        H887   0.992       .  S
C889        C890   1.403       .  A
C889        C894   1.401       .  A
C890        C891   1.404       .  A
C890        H895   1.083       .  S
C891        C892   1.411       .  A
C891        O896   1.371       .  S
C892        C893   1.403       .  A
C893        C894   1.387       .  A
C893        H897   1.084       .  S
C894        O898   1.370       .  S
O896        H900   0.992       .  S
O898        H899   0.992       .  S
C901        C902   1.398       .  A
C901        C906   1.409       .  A
C902        C903   1.395       .  A
C902        H907   1.084       .  S
C903        C904   1.414       .  A
C903        O908   1.372       .  S
C904        C905   1.401       .  A
C905        C906   1.388       .  A
C905        H909   1.084       .  S
C906        O910   1.374       .  S
O908        H912   0.992       .  S
O910        H911   0.992       .  S
C913        C914   1.412       .  A
C913        C918   1.406       .  A
C914        C915   1.422       .  A
C914        H919   1.083       .  S
C915        C916   1.415       .  A
C915        O920   1.371       .  S
C916        C917   1.409       .  A
C917        C918   1.388       .  A
C917        H921   1.083   1_554  S
C918        O922   1.373       .  S
O920        H924   0.992       .  S
O922        H923   0.992       .  S
C925        C926   1.409       .  A
C925        C930   1.414       .  A
C926        C927   1.391       .  A
C926        H931   1.081       .  S
C927        C928   1.409       .  A
C927        O932   1.374       .  S
C928        C929   1.405       .  A
C929        C930   1.400       .  A
C929        H933   1.084       .  S
C930        O934   1.371       .  S
O932        H936   0.992       .  S
O934        H935   0.992       .  S
C937        C938   1.409       .  A
C937        C942   1.401       .  A
C938        C939   1.387       .  A
C938        H943   1.080       .  S
C939        C940   1.401       .  A
C939        O944   1.372       .  S
C940        C941   1.410       .  A
C941        C942   1.396       .  A
C941        H945   1.084       .  S
C942        O946   1.371       .  S
O944        H948   0.992       .  S
O946        H947   0.992       .  S
C949        C950   1.407       .  A
C949        C954   1.423       .  A
C950        C951   1.390       .  A
C950        H955   1.078       .  S
C951        C952   1.412       .  A
C951        O956   1.372       .  S
C952        C953   1.403       .  A
C953        C954   1.411       .  A
C953        H957   1.083       .  S
C954        O958   1.374       .  S
O956        H960   0.991       .  S
O958        H959   0.993       .  S
C961        C962   1.402       .  A
C961        C966   1.414       .  A
C962        C963   1.398       .  A
C962        H967   1.083       .  S
C963        C964   1.415       .  A
C963        O968   1.372       .  S
C964        C965   1.407       .  A
C965        C966   1.412       .  A
C965        H969   1.083       .  S
C966        O970   1.371       .  S
O968        H972   0.992       .  S
O970        H971   0.992       .  S
C973        C974   1.406       .  A
C973        C978   1.412       .  A
C974        C975   1.409       .  A
C974        H979   1.083       .  S
C975        C976   1.411       .  A
C975        O980   1.371       .  S
C976        C977   1.403       .  A
C977        C978   1.394       .  A
C977        H981   1.085       .  S
C978        O982   1.371       .  S
O980        H984   0.991       .  S
O982        H983   0.992       .  S
C985        C986   1.402       .  A
C985        C990   1.418       .  A
C986        C987   1.397       .  A
C986        H991   1.084       .  S
C987        C988   1.413       .  A
C987        O992   1.371       .  S
C988        C989   1.397       .  A
C989        C990   1.384       .  A
C989        H993   1.084       .  S
C990        O994   1.373       .  S
O992        H996   0.991       .  S
O994        H995   0.992       .  S
C997        C998   1.409       .  A
C997       C1002   1.406       .  A
C998        C999   1.399       .  A
C998       H1003   1.083       .  S
C999       C1000   1.404       .  A
C999       O1004   1.374       .  S
C1000      C1001   1.410       .  A
C1001      C1002   1.389       .  A
C1001      H1005   1.083       .  S
C1002      O1006   1.373       .  S
O1004      H1008   0.992       .  S
O1006      H1007   0.992       .  S
C1009      C1010   1.406       .  A
C1009      C1014   1.421       .  A
C1010      C1011   1.419       .  A
C1010      H1015   1.083       .  S
C1011      C1012   1.418       .  A
C1011      O1016   1.372       .  S
C1012      C1013   1.398       .  A
C1013      C1014   1.396       .  A
C1013      H1017   1.084       .  S
C1014      O1018   1.373       .  S
O1016      H1020   0.992       .  S
O1018      H1019   0.992       .  S
C1021      C1022   1.411       .  A
C1021      C1026   1.408       .  A
C1022      C1023   1.395       .  A
C1022      H1027   1.083       .  S
C1023      C1024   1.404       .  A
C1023      O1028   1.372       .  S
C1024      C1025   1.407       .  A
C1025      C1026   1.396       .  A
C1025      H1029   1.083       .  S
C1026      O1030   1.375       .  S
O1028      H1032   0.992       .  S
O1030      H1031   0.992       .  S
C1033      C1034   1.408       .  A
C1033      C1038   1.409       .  A
C1034      C1035   1.416       .  A
C1034      H1039   1.083       .  S
C1035      C1036   1.413       .  A
C1035      O1040   1.371       .  S
C1036      C1037   1.407   1_655  A
C1037      C1038   1.399   1_455  A
C1037      H1041   1.082       .  S
C1038      O1042   1.372   1_655  S
O1040      H1044   0.992       .  S
O1042      H1043   0.992       .  S
C1045      C1046   1.394       .  A
C1045      C1050   1.408       .  A
C1046      C1047   1.396       .  A
C1046      H1051   1.083       .  S
C1047      C1048   1.412       .  A
C1047      O1052   1.373       .  S
C1048      C1049   1.394       .  A
C1049      C1050   1.385       .  A
C1049      H1053   1.084       .  S
C1050      O1054   1.373       .  S
O1052      H1056   0.992       .  S
O1054      H1055   0.991       .  S
C1057      C1058   1.399       .  A
C1057      C1062   1.411       .  A
C1058      C1059   1.391       .  A
C1058      H1063   1.084       .  S
C1059      C1060   1.414       .  A
C1059      O1064   1.374       .  S
C1060      C1061   1.403       .  A
C1061      C1062   1.393       .  A
C1061      H1065   1.084       .  S
C1062      O1066   1.372       .  S
O1064      H1068   0.992       .  S
O1066      H1067   0.992       .  S
C1069      C1070   1.408       .  A
C1069      C1074   1.419       .  A
C1070      C1071   1.382       .  A
C1070      H1075   1.081       .  S
C1071      C1072   1.403       .  A
C1071      O1076   1.373       .  S
C1072      C1073   1.403       .  A
C1073      C1074   1.408       .  A
C1073      H1077   1.083       .  S
C1074      O1078   1.372       .  S
O1076      H1080   0.992       .  S
O1078      H1079   0.992       .  S
C1081      C1082   1.408       .  A
C1081      C1086   1.412       .  A
C1082      C1083   1.411       .  A
C1082      H1087   1.083       .  S
C1083      C1084   1.410       .  A
C1083      O1088   1.371       .  S
C1084      C1085   1.407       .  A
C1085      C1086   1.413       .  A
C1085      H1089   1.081   1_565  S
C1086      O1090   1.371       .  S
O1088      H1092   0.992       .  S
O1090      H1091   0.992       .  S
C1093      C1094   1.406       .  A
C1093      C1098   1.407       .  A
C1094      C1095   1.406       .  A
C1094      H1099   1.083       .  S
C1095      C1096   1.409       .  A
C1095      O1100   1.371       .  S
C1096      C1097   1.406       .  A
C1097      C1098   1.403       .  A
C1097      H1101   1.084       .  S
C1098      O1102   1.371   1_565  S
O1100      H1104   0.992       .  S
O1102      H1103   0.992   1_545  S
C1105      C1106   1.406       .  A
C1105      C1110   1.409       .  A
C1106      C1107   1.409       .  A
C1106      H1111   1.082       .  S
C1107      C1108   1.410       .  A
C1107      O1112   1.371       .  S
C1108      C1109   1.406       .  A
C1109      C1110   1.405       .  A
C1109      H1113   1.084       .  S
C1110      O1114   1.371       .  S
O1112      H1116   0.992       .  S
O1114      H1115   0.992       .  S
C1117      C1118   1.405       .  A
C1117      C1122   1.400       .  A
C1118      C1119   1.395       .  A
C1118      H1123   1.084       .  S
C1119      C1120   1.403       .  A
C1119      O1124   1.373       .  S
C1120      C1121   1.410       .  A
C1121      C1122   1.388       .  A
C1121      H1125   1.084       .  S
C1122      O1126   1.373       .  S
O1124      H1128   0.992       .  S
O1126      H1127   0.992       .  S
C1129      C1130   1.412       .  A
C1129      C1134   1.412       .  A
C1130      C1131   1.409       .  A
C1130      H1135   1.084       .  S
C1131      C1132   1.409       .  A
C1131      O1136   1.370       .  S
C1132      C1133   1.411       .  A
C1133      C1134   1.414       .  A
C1133      H1137   1.082       .  S
C1134      O1138   1.370       .  S
O1136      H1140   0.991       .  S
O1138      H1139   0.991       .  S
C1141      C1142   1.401       .  A
C1141      C1146   1.414       .  A
C1142      C1143   1.402       .  A
C1142      H1147   1.083       .  S
C1143      C1144   1.408       .  A
C1143      O1148   1.371       .  S
C1144      C1145   1.388       .  A
C1145      C1146   1.378       .  A
C1145      H1149   1.085       .  S
C1146      O1150   1.370       .  S
O1148      H1152   0.992       .  S
O1150      H1151   0.992       .  S
C1153      C1154   1.414       .  A
C1153      C1158   1.404       .  A
C1154      C1155   1.393       .  A
C1154      H1159   1.083       .  S
C1155      C1156   1.397       .  A
C1155      O1160   1.373       .  S
C1156      C1157   1.404       .  A
C1157      C1158   1.389       .  A
C1157      H1161   1.083       .  S
C1158      O1162   1.372       .  S
O1160      H1164   0.992       .  S
O1162      H1163   0.992       .  S
C1165      C1166   1.402       .  A
C1165      C1170   1.422       .  A
C1166      C1167   1.389       .  A
C1166      H1171   1.083       .  S
C1167      C1168   1.405       .  A
C1167      O1172   1.368       .  S
C1168      C1169   1.392       .  A
C1169      C1170   1.391       .  A
C1169      H1173   1.084       .  S
C1170      O1174   1.372       .  S
O1172      H1176   0.991       .  S
O1174      H1175   0.992       .  S
C1177      C1178   1.412       .  A
C1177      C1182   1.404       .  A
C1178      C1179   1.402       .  A
C1178      H1183   1.083       .  S
C1179      C1180   1.406       .  A
C1179      O1184   1.374       .  S
C1180      C1181   1.414       .  A
C1181      C1182   1.390       .  A
C1181      H1185   1.082       .  S
C1182      O1186   1.372       .  S
O1184      H1188   0.992       .  S
O1186      H1187   0.992       .  S
C1189      C1190   1.415       .  A
C1189      C1194   1.406       .  A
C1190      C1191   1.402       .  A
C1190      H1195   1.083       .  S
C1191      C1192   1.403       .  A
C1191      O1196   1.370       .  S
C1192      C1193   1.413       .  A
C1193      C1194   1.392       .  A
C1193      H1197   1.084       .  S
C1194      O1198   1.371       .  S
O1196      H1200   0.992       .  S
O1198      H1199   0.991       .  S
C1201      C1202   1.407       .  A
C1201      C1206   1.418       .  A
C1202      C1203   1.415       .  A
C1202      H1207   1.083       .  S
C1203      C1204   1.416       .  A
C1203      O1208   1.370       .  S
C1204      C1205   1.403       .  A
C1205      C1206   1.409       .  A
C1205      H1209   1.084       .  S
C1206      O1210   1.372       .  S
O1208      H1212   0.992       .  S
O1210      H1211   0.992       .  S
C1213      C1214   1.417       .  A
C1213      C1218   1.406       .  A
C1214      C1215   1.418       .  A
C1214      H1219   1.083       .  S
C1215      C1216   1.410       .  A
C1215      O1220   1.370       .  S
C1216      C1217   1.418       .  A
C1217      C1218   1.408       .  A
C1217      H1221   1.083       .  S
C1218      O1222   1.373       .  S
O1220      H1224   0.992       .  S
O1222      H1223   0.992       .  S
C1225      C1226   1.405       .  A
C1225      C1230   1.408       .  A
C1226      C1227   1.404       .  A
C1226      H1231   1.082       .  S
C1227      C1228   1.410       .  A
C1227      O1232   1.373       .  S
C1228      C1229   1.407       .  A
C1229      C1230   1.406       .  A
C1229      H1233   1.084       .  S
C1230      O1234   1.371       .  S
O1232      H1236   0.992       .  S
O1234      H1235   0.991       .  S
C1237      C1238   1.415       .  A
C1237      C1242   1.405       .  A
C1238      C1239   1.424       .  A
C1238      H1243   1.083       .  S
C1239      C1240   1.416       .  A
C1239      O1244   1.370       .  S
C1240      C1241   1.413       .  A
C1241      C1242   1.392       .  A
C1241      H1245   1.084       .  S
C1242      O1246   1.370   1_655  S
O1244      H1248   0.992       .  S
O1246      H1247   0.992       .  S
C1249      C1250   1.408       .  A
C1249      C1254   1.417       .  A
C1250      C1251   1.416       .  A
C1250      H1255   1.083       .  S
C1251      C1252   1.415       .  A
C1251      O1256   1.372       .  S
C1252      C1253   1.401       .  A
C1253      C1254   1.397       .  A
C1253      H1257   1.083       .  S
C1254      O1258   1.372       .  S
O1256      H1260   0.992       .  S
O1258      H1259   0.992       .  S
C1261      C1262   1.404       .  A
C1261      C1266   1.407       .  A
C1262      C1263   1.393       .  A
C1262      H1267   1.084       .  S
C1263      C1264   1.406       .  A
C1263      O1268   1.373       .  S
C1264      C1265   1.407       .  A
C1265      C1266   1.396       .  A
C1265      H1269   1.084       .  S
C1266      O1270   1.372       .  S
O1268      H1272   0.992       .  S
O1270      H1271   0.992       .  S
C1273      C1274   1.409       .  A
C1273      C1278   1.405       .  A
C1274      C1275   1.410       .  A
C1274      H1279   1.083       .  S
C1275      C1276   1.411       .  A
C1275      O1280   1.371       .  S
C1276      C1277   1.412       .  A
C1277      C1278   1.406       .  A
C1277      H1281   1.084       .  S
C1278      O1282   1.372       .  S
O1280      H1284   0.991       .  S
O1282      H1283   0.992       .  S
C1285      C1286   1.397       .  A
C1285      C1290   1.404       .  A
C1286      C1287   1.398       .  A
C1286      H1291   1.084       .  S
C1287      C1288   1.413       .  A
C1287      O1292   1.374       .  S
C1288      C1289   1.404       .  A
C1289      C1290   1.393       .  A
C1289      H1293   1.083       .  S
C1290      O1294   1.373       .  S
O1292      H1296   0.992       .  S
O1294      H1295   0.991       .  S
C1297      C1298   1.409       .  A
C1297      C1302   1.406       .  A
C1298      C1299   1.394       .  A
C1298      H1303   1.084       .  S
C1299      C1300   1.397       .  A
C1299      O1304   1.371       .  S
C1300      C1301   1.402       .  A
C1301      C1302   1.389       .  A
C1301      H1305   1.085       .  S
C1302      O1306   1.372       .  S
O1304      H1308   0.992       .  S
O1306      H1307   0.992       .  S
C1309      C1310   1.406       .  A
C1309      C1314   1.403       .  A
C1310      C1311   1.390       .  A
C1310      H1315   1.084       .  S
C1311      C1312   1.407       .  A
C1311      O1316   1.373       .  S
C1312      C1313   1.408       .  A
C1313      C1314   1.398       .  A
C1313      H1317   1.084       .  S
C1314      O1318   1.372       .  S
O1316      H1320   0.992       .  S
O1318      H1319   0.991       .  S
C1321      C1322   1.404       .  A
C1321      C1326   1.415       .  A
C1322      C1323   1.387       .  A
C1322      H1327   1.083       .  S
C1323      C1324   1.403       .  A
C1323      O1328   1.373       .  S
C1324      C1325   1.395       .  A
C1325      C1326   1.401       .  A
C1325      H1329   1.083       .  S
C1326      O1330   1.375       .  S
O1328      H1332   0.991       .  S
O1330      H1331   0.992       .  S
C1333      C1334   1.409       .  A
C1333      C1338   1.404       .  A
C1334      C1335   1.390       .  A
C1334      H1339   1.083       .  S
C1335      C1336   1.406       .  A
C1335      O1340   1.372       .  S
C1336      C1337   1.410       .  A
C1337      C1338   1.396       .  A
C1337      H1341   1.084       .  S
C1338      O1342   1.371       .  S
O1340      H1344   0.992       .  S
O1342      H1343   0.991       .  S
C1345      C1346   1.405       .  A
C1345      C1350   1.420       .  A
C1346      C1347   1.397       .  A
C1346      H1351   1.082       .  S
C1347      C1348   1.414       .  A
C1347      O1352   1.373       .  S
C1348      C1349   1.405       .  A
C1349      C1350   1.421       .  A
C1349      H1353   1.083       .  S
C1350      O1354   1.375   1_565  S
O1352      H1356   0.992       .  S
O1354      H1355   0.992       .  S
C1357      C1358   1.408       .  A
C1357      C1362   1.404       .  A
C1358      C1359   1.401       .  A
C1358      H1363   1.081       .  S
C1359      C1360   1.405       .  A
C1359      O1364   1.371       .  S
C1360      C1361   1.406       .  A
C1361      C1362   1.401       .  A
C1361      H1365   1.084       .  S
C1362      O1366   1.372       .  S
O1364      H1368   0.992       .  S
O1366      H1367   0.992       .  S
C1369      C1370   1.412       .  A
C1369      C1374   1.406       .  A
C1370      C1371   1.421       .  A
C1370      H1375   1.083       .  S
C1371      C1372   1.416       .  A
C1371      O1376   1.370       .  S
C1372      C1373   1.414       .  A
C1373      C1374   1.401       .  A
C1373      H1377   1.083       .  S
C1374      O1378   1.372       .  S
O1376      H1380   0.992       .  S
O1378      H1379   0.991       .  S
C1381      C1382   1.407       .  A
C1381      C1386   1.409       .  A
C1382      C1383   1.402       .  A
C1382      H1387   1.083       .  S
C1383      C1384   1.411       .  A
C1383      O1388   1.371       .  S
C1384      C1385   1.409       .  A
C1385      C1386   1.408       .  A
C1385      H1389   1.084       .  S
C1386      O1390   1.371       .  S
O1388      H1392   0.992       .  S
O1390      H1391   0.992       .  S
C1393      C1394   1.413       .  A
C1393      C1398   1.421       .  A
C1394      C1395   1.421       .  A
C1394      H1399   1.082       .  S
C1395      C1396   1.414       .  A
C1395      O1400   1.370       .  S
C1396      C1397   1.390       .  A
C1397      C1398   1.388       .  A
C1397      H1401   1.078       .  S
C1398      O1402   1.373       .  S
O1400      H1404   0.992       .  S
O1402      H1403   0.992       .  S
C1405      C1406   1.401       .  A
C1405      C1410   1.410       .  A
C1406      C1407   1.404       .  A
C1406      H1411   1.083       .  S
C1407      C1408   1.413       .  A
C1407      O1412   1.373       .  S
C1408      C1409   1.404       .  A
C1409      C1410   1.404       .  A
C1409      H1413   1.084       .  S
C1410      O1414   1.370       .  S
O1412      H1416   0.992       .  S
O1414      H1415   0.991       .  S
C1417      C1418   1.404       .  A
C1417      C1422   1.412       .  A
C1418      C1419   1.406       .  A
C1418      H1423   1.083       .  S
C1419      C1420   1.412       .  A
C1419      O1424   1.372       .  S
C1420      C1421   1.405       .  A
C1421      C1422   1.409       .  A
C1421      H1425   1.084       .  S
C1422      O1426   1.372       .  S
O1424      H1428   0.992       .  S
O1426      H1427   0.992       .  S
C1429      C1430   1.397       .  A
C1429      C1434   1.409       .  A
C1430      C1431   1.394       .  A
C1430      H1435   1.084       .  S
C1431      C1432   1.412       .  A
C1431      O1436   1.372       .  S
C1432      C1433   1.399       .  A
C1433      C1434   1.383       .  A
C1433      H1437   1.084       .  S
C1434      O1438   1.375       .  S
O1436      H1440   0.992       .  S
O1438      H1439   0.992       .  S
C1441      C1442   1.408       .  A
C1441      C1446   1.415       .  A
C1442      C1443   1.414       .  A
C1442      H1447   1.083       .  S
C1443      C1444   1.412       .  A
C1443      O1448   1.372       .  S
C1444      C1445   1.405       .  A
C1445      C1446   1.412       .  A
C1445      H1449   1.083       .  S
C1446      O1450   1.372       .  S
O1448      H1452   0.992   1_455  S
O1450      H1451   0.992       .  S
C1453      C1454   1.402       .  A
C1453      C1458   1.398       .  A
C1454      C1455   1.400       .  A
C1454      H1459   1.083       .  S
C1455      C1456   1.411       .  A
C1455      O1460   1.374       .  S
C1456      C1457   1.407       .  A
C1457      C1458   1.389       .  A
C1457      H1461   1.079       .  S
C1458      O1462   1.372       .  S
O1460      H1464   0.992       .  S
O1462      H1463   0.992       .  S
C1465      C1466   1.392       .  A
C1465      C1470   1.407       .  A
C1466      C1467   1.380       .  A
C1466      H1471   1.085       .  S
C1467      C1468   1.412       .  A
C1467      O1472   1.373       .  S
C1468      C1469   1.395       .  A
C1469      C1470   1.395       .  A
C1469      H1473   1.083       .  S
C1470      O1474   1.372       .  S
O1472      H1476   0.992       .  S
O1474      H1475   0.992       .  S
C1477      C1478   1.409       .  A
C1477      C1482   1.398       .  A
C1478      C1479   1.393       .  A
C1478      H1483   1.084       .  S
C1479      C1480   1.399       .  A
C1479      O1484   1.374       .  S
C1480      C1481   1.414       .  A
C1481      C1482   1.391       .  A
C1481      H1485   1.080       .  S
C1482      O1486   1.372       .  S
O1484      H1488   0.992       .  S
O1486      H1487   0.992       .  S
C1489      C1490   1.402       .  A
C1489      C1494   1.413       .  A
C1490      C1491   1.404       .  A
C1490      H1495   1.084       .  S
C1491      C1492   1.412       .  A
C1491      O1496   1.368       .  S
C1492      C1493   1.403       .  A
C1493      C1494   1.403       .  A
C1493      H1497   1.083       .  S
C1494      O1498   1.371       .  S
O1496      H1500   0.992       .  S
O1498      H1499   0.992       .  S
C1501      C1502   1.405       .  A
C1501      C1506   1.403       .  A
C1502      C1503   1.386       .  A
C1502      H1507   1.084       .  S
C1503      C1504   1.401       .  A
C1503      O1508   1.373       .  S
C1504      C1505   1.405       .  A
C1505      C1506   1.403       .  A
C1505      H1509   1.083       .  S
C1506      O1510   1.370       .  S
O1508      H1512   0.992       .  S
O1510      H1511   0.992       .  S
C1513      C1514   1.412       .  A
C1513      C1518   1.415       .  A
C1514      C1515   1.396       .  A
C1514      H1519   1.083       .  S
C1515      C1516   1.404       .  A
C1515      O1520   1.376       .  S
C1516      C1517   1.411       .  A
C1517      C1518   1.418       .  A
C1517      H1521   1.083       .  S
C1518      O1522   1.370       .  S
O1520      H1524   0.992       .  S
O1522      H1523   0.992       .  S
C1525      C1526   1.406       .  A
C1525      C1530   1.416       .  A
C1526      C1527   1.389       .  A
C1526      H1531   1.082       .  S
C1527      C1528   1.405       .  A
C1527      O1532   1.373       .  S
C1528      C1529   1.395       .  A
C1529      C1530   1.402       .  A
C1529      H1533   1.083       .  S
C1530      O1534   1.376       .  S
O1532      H1536   0.992       .  S
O1534      H1535   0.992       .  S
C1537      C1538   1.410       .  A
C1537      C1542   1.416       .  A
C1538      C1539   1.418       .  A
C1538      H1543   1.083       .  S
C1539      C1540   1.414       .  A
C1539      O1544   1.371       .  S
C1540      C1541   1.407       .  A
C1541      C1542   1.403       .  A
C1541      H1545   1.083       .  S
C1542      O1546   1.372       .  S
O1544      H1548   0.992       .  S
O1546      H1547   0.992       .  S
C1549      C1550   1.400       .  A
C1549      C1554   1.415       .  A
C1550      C1551   1.401       .  A
C1550      H1555   1.084       .  S
C1551      C1552   1.422       .  A
C1551      O1556   1.372       .  S
C1552      C1553   1.412       .  A
C1553      C1554   1.420       .  A
C1553      H1557   1.082       .  S
C1554      O1558   1.371       .  S
O1556      H1560   0.992       .  S
O1558      H1559   0.992       .  S
C1561      C1562   1.409       .  A
C1561      C1566   1.410       .  A
C1562      C1563   1.393       .  A
C1562      H1567   1.083       .  S
C1563      C1564   1.400       .  A
C1563      O1568   1.374       .  S
C1564      C1565   1.405       .  A
C1565      C1566   1.402       .  A
C1565      H1569   1.084       .  S
C1566      O1570   1.371       .  S
O1568      H1572   0.991       .  S
O1570      H1571   0.992       .  S
C1573      C1574   1.400       .  A
C1573      C1578   1.404       .  A
C1574      C1575   1.384       .  A
C1574      H1579   1.084       .  S
C1575      C1576   1.409       .  A
C1575      O1580   1.371       .  S
C1576      C1577   1.403       .  A
C1577      C1578   1.387       .  A
C1577      H1581   1.084       .  S
C1578      O1582   1.372       .  S
O1580      H1584   0.992       .  S
O1582      H1583   0.992       .  S
C1585      C1586   1.409       .  A
C1585      C1590   1.408       .  A
C1586      C1587   1.403       .  A
C1586      H1591   1.081       .  S
C1587      C1588   1.408       .  A
C1587      O1592   1.371       .  S
C1588      C1589   1.408       .  A
C1589      C1590   1.408       .  A
C1589      H1593   1.083       .  S
C1590      O1594   1.371       .  S
O1592      H1596   0.991       .  S
O1594      H1595   0.992       .  S
C1597      C1598   1.411       .  A
C1597      C1602   1.409       .  A
C1598      C1599   1.393       .  A
C1598      H1603   1.083       .  S
C1599      C1600   1.406       .  A
C1599      O1604   1.371       .  S
C1600      C1601   1.408       .  A
C1601      C1602   1.405       .  A
C1601      H1605   1.084       .  S
C1602      O1606   1.373       .  S
O1604      H1608   0.992       .  S
O1606      H1607   0.992       .  S
C1609      C1610   1.405       .  A
C1609      C1614   1.411       .  A
C1610      C1611   1.418       .  A
C1610      H1615   1.083       .  S
C1611      C1612   1.417       .  A
C1611      O1616   1.376   1_565  S
C1612      C1613   1.404       .  A
C1613      C1614   1.399       .  A
C1613      H1617   1.083       .  S
C1614      O1618   1.372       .  S
O1616      H1620   0.992       .  S
O1618      H1619   0.992       .  S
C1621      C1622   1.407       .  A
C1621      C1626   1.404       .  A
C1622      C1623   1.385       .  A
C1622      H1627   1.082       .  S
C1623      C1624   1.404       .  A
C1623      O1628   1.372       .  S
C1624      C1625   1.409       .  A
C1625      C1626   1.399       .  A
C1625      H1629   1.083       .  S
C1626      O1630   1.371       .  S
O1628      H1632   0.992       .  S
O1630      H1631   0.992       .  S
C1633      C1634   1.418       .  A
C1633      C1638   1.417       .  A
C1634      C1635   1.406       .  A
C1634      H1639   1.080       .  S
C1635      C1636   1.412       .  A
C1635      O1640   1.371       .  S
C1636      C1637   1.414       .  A
C1637      C1638   1.410       .  A
C1637      H1641   1.084       .  S
C1638      O1642   1.369       .  S
O1640      H1644   0.992       .  S
O1642      H1643   0.992       .  S
C1645      C1646   1.407       .  A
C1645      C1650   1.413       .  A
C1646      C1647   1.391       .  A
C1646      H1651   1.083       .  S
C1647      C1648   1.411       .  A
C1647      O1652   1.372       .  S
C1648      C1649   1.405       .  A
C1649      C1650   1.405       .  A
C1649      H1653   1.084       .  S
C1650      O1654   1.373       .  S
O1652      H1656   0.992       .  S
O1654      H1655   0.992       .  S
C1657      C1658   1.411       .  A
C1657      C1662   1.403       .  A
C1658      C1659   1.419       .  A
C1658      H1663   1.083       .  S
C1659      C1660   1.413       .  A
C1659      O1664   1.372       .  S
C1660      C1661   1.411       .  A
C1661      C1662   1.387       .  A
C1661      H1665   1.083       .  S
C1662      O1666   1.373       .  S
O1664      H1668   0.992       .  S
O1666      H1667   0.992       .  S
C1669      C1670   1.408       .  A
C1669      C1674   1.414       .  A
C1670      C1671   1.393       .  A
C1670      H1675   1.083       .  S
C1671      C1672   1.405       .  A
C1671      O1676   1.371       .  S
C1672      C1673   1.399       .  A
C1673      C1674   1.394       .  A
C1673      H1677   1.084       .  S
C1674      O1678   1.371       .  S
O1676      H1680   0.991       .  S
O1678      H1679   0.992       .  S
C1681      C1682   1.418       .  A
C1681      C1686   1.408       .  A
C1682      C1683   1.386       .  A
C1682      H1687   1.080       .  S
C1683      C1684   1.391       .  A
C1683      O1688   1.373       .  S
C1684      C1685   1.399       .  A
C1685      C1686   1.395       .  A
C1685      H1689   1.084       .  S
C1686      O1690   1.375       .  S
O1688      H1692   0.992       .  S
O1690      H1691   0.993       .  S
C1693      C1694   1.404       .  A
C1693      C1698   1.413       .  A
C1694      C1695   1.404       .  A
C1694      H1699   1.083       .  S
C1695      C1696   1.407       .  A
C1695      O1700   1.371       .  S
C1696      C1697   1.393       .  A
C1697      C1698   1.386       .  A
C1697      H1701   1.085       .  S
C1698      O1702   1.372       .  S
O1700      H1704   0.992       .  S
O1702      H1703   0.991       .  S
C1705      C1706   1.404       .  A
C1705      C1710   1.414       .  A
C1706      C1707   1.409       .  A
C1706      H1711   1.083       .  S
C1707      C1708   1.412       .  A
C1707      O1712   1.371       .  S
C1708      C1709   1.399       .  A
C1709      C1710   1.402       .  A
C1709      H1713   1.084       .  S
C1710      O1714   1.374       .  S
O1712      H1716   0.991       .  S
O1714      H1715   0.992       .  S
C1717      C1718   1.407       .  A
C1717      C1722   1.419       .  A
C1718      C1719   1.397       .  A
C1718      H1723   1.083       .  S
C1719      C1720   1.402       .  A
C1719      O1724   1.372       .  S
C1720      C1721   1.393       .  A
C1721      C1722   1.390       .  A
C1721      H1725   1.085       .  S
C1722      O1726   1.372       .  S
O1724      H1728   0.991       .  S
O1726      H1727   0.992       .  S
C1729      C1730   1.409       .  A
C1729      C1734   1.411       .  A
C1730      C1731   1.412       .  A
C1730      H1735   1.083       .  S
C1731      C1732   1.411       .  A
C1731      O1736   1.371       .  S
C1732      C1733   1.409       .  A
C1733      C1734   1.407       .  A
C1733      H1737   1.082       .  S
C1734      O1738   1.372       .  S
O1736      H1740   0.992       .  S
O1738      H1739   0.992       .  S
C1741      C1742   1.403       .  A
C1741      C1746   1.406       .  A
C1742      C1743   1.391       .  A
C1742      H1747   1.084       .  S
C1743      C1744   1.408       .  A
C1743      O1748   1.372       .  S
C1744      C1745   1.403       .  A
C1745      C1746   1.391       .  A
C1745      H1749   1.083       .  S
C1746      O1750   1.372       .  S
O1748      H1752   0.992       .  S
O1750      H1751   0.991       .  S
C1753      C1754   1.404       .  A
C1753      C1758   1.415       .  A
C1754      C1755   1.405       .  A
C1754      H1759   1.084       .  S
C1755      C1756   1.414       .  A
C1755      O1760   1.371       .  S
C1756      C1757   1.409       .  A
C1757      C1758   1.419       .  A
C1757      H1761   1.083       .  S
C1758      O1762   1.371       .  S
O1760      H1764   0.992       .  S
O1762      H1763   0.992       .  S
C1765      C1766   1.405       .  A
C1765      C1770   1.410       .  A
C1766      C1767   1.388       .  A
C1766      H1771   1.083       .  S
C1767      C1768   1.402       .  A
C1767      O1772   1.372       .  S
C1768      C1769   1.404       .  A
C1769      C1770   1.400       .  A
C1769      H1773   1.082       .  S
C1770      O1774   1.372       .  S
O1772      H1776   0.992       .  S
O1774      H1775   0.992       .  S
C1777      C1778   1.406       .  A
C1777      C1782   1.420       .  A
C1778      C1779   1.417       .  A
C1778      H1783   1.083       .  S
C1779      C1780   1.417       .  A
C1779      O1784   1.371       .  S
C1780      C1781   1.403       .  A
C1781      C1782   1.409       .  A
C1781      H1785   1.084       .  S
C1782      O1786   1.374       .  S
O1784      H1788   0.992       .  S
O1786      H1787   0.992       .  S
C1789      C1790   1.418       .  A
C1789      C1794   1.399       .  A
C1790      C1791   1.399       .  A
C1790      H1795   1.081       .  S
C1791      C1792   1.399       .  A
C1791      O1796   1.371       .  S
C1792      C1793   1.409       .  A
C1793      C1794   1.387       .  A
C1793      H1797   1.077       .  S
C1794      O1798   1.377       .  S
O1796      H1800   0.992       .  S
O1798      H1799   0.993       .  S
C1801      C1802   1.403       .  A
C1801      C1806   1.411       .  A
C1802      C1803   1.399       .  A
C1802      H1807   1.080       .  S
C1803      C1804   1.410       .  A
C1803      O1808   1.374       .  S
C1804      C1805   1.409       .  A
C1805      C1806   1.409       .  A
C1805      H1809   1.083       .  S
C1806      O1810   1.369       .  S
O1808      H1812   0.992       .  S
O1810      H1811   0.991       .  S
C1813      C1814   1.407       .  A
C1813      C1818   1.408       .  A
C1814      C1815   1.408       .  A
C1814      H1819   1.083       .  S
C1815      C1816   1.410       .  A
C1815      O1820   1.371       .  S
C1816      C1817   1.408       .  A
C1817      C1818   1.406       .  A
C1817      H1821   1.081       .  S
C1818      O1822   1.371       .  S
O1820      H1824   0.992       .  S
O1822      H1823   0.992       .  S
C1825      C1826   1.402       .  A
C1825      C1830   1.409       .  A
C1826      C1827   1.403       .  A
C1826      H1831   1.083       .  S
C1827      C1828   1.412       .  A
C1827      O1832   1.370       .  S
C1828      C1829   1.406       .  A
C1829      C1830   1.402       .  A
C1829      H1833   1.084       .  S
C1830      O1834   1.371       .  S
O1832      H1836   0.992       .  S
O1834      H1835   0.991       .  S
C1837      C1838   1.401       .  A
C1837      C1842   1.413       .  A
C1838      C1839   1.391       .  A
C1838      H1843   1.083       .  S
C1839      C1840   1.413       .  A
C1839      O1844   1.373       .  S
C1840      C1841   1.409       .  A
C1841      C1842   1.417       .  A
C1841      H1845   1.083       .  S
C1842      O1846   1.371       .  S
O1844      H1848   0.992       .  S
O1846      H1847   0.991       .  S
C1849      C1850   1.402       .  A
C1849      C1854   1.410       .  A
C1850      C1851   1.403       .  A
C1850      H1855   1.083       .  S
C1851      C1852   1.413       .  A
C1851      O1856   1.371       .  S
C1852      C1853   1.405       .  A
C1853      C1854   1.406       .  A
C1853      H1857   1.084       .  S
C1854      O1858   1.373       .  S
O1856      H1860   0.991       .  S
O1858      H1859   0.992   1_554  S
C1861      C1862   1.409       .  A
C1861      C1866   1.409       .  A
C1862      C1863   1.416       .  A
C1862      H1867   1.083       .  S
C1863      C1864   1.415       .  A
C1863      O1868   1.370       .  S
C1864      C1865   1.407       .  A
C1865      C1866   1.393       .  A
C1865      H1869   1.084       .  S
C1866      O1870   1.371   1_554  S
O1868      H1872   0.992       .  S
O1870      H1871   0.992   1_556  S
C1873      C1874   1.403       .  A
C1873      C1878   1.411       .  A
C1874      C1875   1.408   1_565  A
C1874      H1879   1.083       .  S
C1875      C1876   1.411       .  A
C1875      O1880   1.372       .  S
C1876      C1877   1.401   1_545  A
C1877      C1878   1.400       .  A
C1877      H1881   1.084       .  S
C1878      O1882   1.373       .  S
O1880      H1884   0.991       .  S
O1882      H1883   0.992       .  S
C1885      C1886   1.396       .  A
C1885      C1890   1.403       .  A
C1886      C1887   1.381       .  A
C1886      H1891   1.085       .  S
C1887      C1888   1.406       .  A
C1887      O1892   1.374       .  S
C1888      C1889   1.403       .  A
C1889      C1890   1.398       .  A
C1889      H1893   1.083       .  S
C1890      O1894   1.371       .  S
O1892      H1896   0.992       .  S
O1894      H1895   0.992       .  S
C1897      C1898   1.410       .  A
C1897      C1902   1.406       .  A
C1898      C1899   1.404       .  A
C1898      H1903   1.084       .  S
C1899      C1900   1.404   1_565  A
C1899      O1904   1.371       .  S
C1900      C1901   1.407       .  A
C1901      C1902   1.401   1_545  A
C1901      H1905   1.083       .  S
C1902      O1906   1.371       .  S
O1904      H1908   0.991       .  S
O1906      H1907   0.992   1_565  S
C1909      C1910   1.404       .  A
C1909      C1914   1.416       .  A
C1910      C1911   1.390       .  A
C1910      H1915   1.083       .  S
C1911      C1912   1.405       .  A
C1911      O1916   1.372       .  S
C1912      C1913   1.394       .  A
C1913      C1914   1.392       .  A
C1913      H1917   1.084       .  S
C1914      O1918   1.372       .  S
O1916      H1920   0.992       .  S
O1918      H1919   0.992       .  S
C1921      C1922   1.406       .  A
C1921      C1926   1.402       .  A
C1922      C1923   1.405       .  A
C1922      H1927   1.084       .  S
C1923      C1924   1.423       .  A
C1923      O1928   1.368       .  S
C1924      C1925   1.421   1_655  A
C1925      C1926   1.411   1_455  A
C1925      H1929   1.073       .  S
C1926      O1930   1.371   1_655  S
O1928      H1932   0.992       .  S
O1930      H1931   0.992       .  S
C1933      C1934   1.415       .  A
C1933      C1938   1.409       .  A
C1934      C1935   1.391       .  A
C1934      H1939   1.081       .  S
C1935      C1936   1.404       .  A
C1935      O1940   1.372       .  S
C1936      C1937   1.406       .  A
C1937      C1938   1.402       .  A
C1937      H1941   1.084       .  S
C1938      O1942   1.375       .  S
O1940      H1944   0.992       .  S
O1942      H1943   0.992       .  S
C1945      C1946   1.406       .  A
C1945      C1950   1.413       .  A
C1946      C1947   1.413       .  A
C1946      H1951   1.083       .  S
C1947      C1948   1.418       .  A
C1947      O1952   1.376       .  S
C1948      C1949   1.405       .  A
C1949      C1950   1.405       .  A
C1949      H1953   1.083       .  S
C1950      O1954   1.374       .  S
O1952      H1956   0.992       .  S
O1954      H1955   0.992       .  S
C1957      C1958   1.407       .  A
C1957      C1962   1.425       .  A
C1958      C1959   1.392       .  A
C1958      H1963   1.081       .  S
C1959      C1960   1.415       .  A
C1959      O1964   1.373       .  S
C1960      C1961   1.400       .  A
C1961      C1962   1.401       .  A
C1961      H1965   1.084       .  S
C1962      O1966   1.373       .  S
O1964      H1968   0.992       .  S
O1966      H1967   0.992       .  S
C1969      C1970   1.403       .  A
C1969      C1974   1.413       .  A
C1970      C1971   1.409       .  A
C1970      H1975   1.083       .  S
C1971      C1972   1.414       .  A
C1971      O1976   1.373       .  S
C1972      C1973   1.404       .  A
C1973      C1974   1.404       .  A
C1973      H1977   1.083       .  S
C1974      O1978   1.373       .  S
O1976      H1980   0.992   1_556  S
O1978      H1979   0.992       .  S
C1981      C1982   1.414       .  A
C1981      C1986   1.405       .  A
C1982      C1983   1.391       .  A
C1982      H1987   1.076       .  S
C1983      C1984   1.399       .  A
C1983      O1988   1.372       .  S
C1984      C1985   1.405       .  A
C1985      C1986   1.394       .  A
C1985      H1989   1.073       .  S
C1986      O1990   1.375       .  S
O1988      H1992   0.992       .  S
O1990      H1991   0.993       .  S
C1993      C1994   1.404       .  A
C1993      C1998   1.412       .  A
C1994      C1995   1.406       .  A
C1994      H1999   1.084       .  S
C1995      C1996   1.412       .  A
C1995      O2000   1.373       .  S
C1996      C1997   1.403       .  A
C1997      C1998   1.408       .  A
C1997      H2001   1.083       .  S
C1998      O2002   1.372       .  S
O2000      H2004   0.992       .  S
O2002      H2003   0.992       .  S
C2005      C2006   1.398       .  A
C2005      C2010   1.412       .  A
C2006      C2007   1.391       .  A
C2006      H2011   1.084       .  S
C2007      C2008   1.412       .  A
C2007      O2012   1.373       .  S
C2008      C2009   1.397       .  A
C2009      C2010   1.394       .  A
C2009      H2013   1.084       .  S
C2010      O2014   1.372       .  S
O2012      H2016   0.992       .  S
O2014      H2015   0.992       .  S
C2017      C2018   1.404       .  A
C2017      C2022   1.412       .  A
C2018      C2019   1.392       .  A
C2018      H2023   1.080       .  S
C2019      C2020   1.408       .  A
C2019      O2024   1.372       .  S
C2020      C2021   1.408       .  A
C2021      C2022   1.414       .  A
C2021      H2025   1.083       .  S
C2022      O2026   1.370       .  S
O2024      H2028   0.992       .  S
O2026      H2027   0.992       .  S
C2029      C2030   1.409       .  A
C2029      C2034   1.403       .  A
C2030      C2031   1.413       .  A
C2030      H2035   1.083       .  S
C2031      C2032   1.409       .  A
C2031      O2036   1.370       .  S
C2032      C2033   1.409       .  A
C2033      C2034   1.398       .  A
C2033      H2037   1.083       .  S
C2034      O2038   1.375       .  S
O2036      H2040   0.992       .  S
O2038      H2039   0.992       .  S
C2041      C2042   1.407       .  A
C2041      C2046   1.406       .  A
C2042      C2043   1.404       .  A
C2042      H2047   1.080       .  S
C2043      C2044   1.405       .  A
C2043      O2048   1.371       .  S
C2044      C2045   1.408       .  A
C2045      C2046   1.406       .  A
C2045      H2049   1.084       .  S
C2046      O2050   1.371       .  S
O2048      H2052   0.992       .  S
O2050      H2051   0.992       .  S
C2053      C2054   1.410       .  A
C2053      C2058   1.411       .  A
C2054      C2055   1.406       .  A
C2054      H2059   1.083       .  S
C2055      C2056   1.408       .  A
C2055      O2060   1.371       .  S
C2056      C2057   1.406       .  A
C2057      C2058   1.402       .  A
C2057      H2061   1.084       .  S
C2058      O2062   1.371       .  S
O2060      H2064   0.992       .  S
O2062      H2063   0.992       .  S
C2065      C2066   1.409       .  A
C2065      C2070   1.419       .  A
C2066      C2067   1.419       .  A
C2066      H2071   1.080       .  S
C2067      C2068   1.414       .  A
C2067      O2072   1.380       .  S
C2068      C2069   1.401       .  A
C2069      C2070   1.408       .  A
C2069      H2073   1.083       .  S
C2070      O2074   1.368       .  S
O2072      H2076   0.991       .  S
O2074      H2075   0.991       .  S
C2077      C2078   1.415       .  A
C2077      C2082   1.412       .  A
C2078      C2079   1.417       .  A
C2078      H2083   1.083       .  S
C2079      C2080   1.409       .  A
C2079      O2084   1.371       .  S
C2080      C2081   1.404       .  A
C2081      C2082   1.402       .  A
C2081      H2085   1.081       .  S
C2082      O2086   1.371       .  S
O2084      H2088   0.992       .  S
O2086      H2087   0.991       .  S
C2089      C2090   1.407       .  A
C2089      C2094   1.410       .  A
C2090      C2091   1.410       .  A
C2090      H2095   1.083       .  S
C2091      C2092   1.411       .  A
C2091      O2096   1.371       .  S
C2092      C2093   1.407       .  A
C2093      C2094   1.408       .  A
C2093      H2097   1.084       .  S
C2094      O2098   1.371       .  S
O2096      H2100   0.992       .  S
O2098      H2099   0.991       .  S
C2101      C2102   1.406       .  A
C2101      C2106   1.415       .  A
C2102      C2103   1.410       .  A
C2102      H2107   1.083       .  S
C2103      C2104   1.413       .  A
C2103      O2108   1.373       .  S
C2104      C2105   1.408       .  A
C2105      C2106   1.409       .  A
C2105      H2109   1.084       .  S
C2106      O2110   1.371       .  S
O2108      H2112   0.991       .  S
O2110      H2111   0.992       .  S
C2113      C2114   1.410       .  A
C2113      C2118   1.412       .  A
C2114      C2115   1.407       .  A
C2114      H2119   1.082       .  S
C2115      C2116   1.409       .  A
C2115      O2120   1.371       .  S
C2116      C2117   1.409       .  A
C2117      C2118   1.412       .  A
C2117      H2121   1.084       .  S
C2118      O2122   1.371       .  S
O2120      H2124   0.992       .  S
O2122      H2123   0.992       .  S
C2125      C2126   1.411       .  A
C2125      C2130   1.410       .  A
C2126      C2127   1.408       .  A
C2126      H2131   1.083       .  S
C2127      C2128   1.408       .  A
C2127      O2132   1.371       .  S
C2128      C2129   1.408       .  A
C2129      C2130   1.405       .  A
C2129      H2133   1.084       .  S
C2130      O2134   1.372       .  S
O2132      H2136   0.992       .  S
O2134      H2135   0.992       .  S
C2137      C2138   1.411       .  A
C2137      C2142   1.415       .  A
C2138      C2139   1.407       .  A
C2138      H2143   1.083       .  S
C2139      C2140   1.411       .  A
C2139      O2144   1.371       .  S
C2140      C2141   1.412       .  A
C2141      C2142   1.420       .  A
C2141      H2145   1.083       .  S
C2142      O2146   1.371       .  S
O2144      H2148   0.992       .  S
O2146      H2147   0.992       .  S
C2149      C2150   1.410       .  A
C2149      C2154   1.409       .  A
C2150      C2151   1.412       .  A
C2150      H2155   1.083       .  S
C2151      C2152   1.411       .  A
C2151      O2156   1.371       .  S
C2152      C2153   1.412       .  A
C2153      C2154   1.410       .  A
C2153      H2157   1.083       .  S
C2154      O2158   1.371       .  S
O2156      H2160   0.991       .  S
O2158      H2159   0.992       .  S
C2161      C2162   1.405       .  A
C2161      C2166   1.415       .  A
C2162      C2163   1.400       .  A
C2162      H2167   1.083       .  S
C2163      C2164   1.412       .  A
C2163      O2168   1.373       .  S
C2164      C2165   1.406       .  A
C2165      C2166   1.413       .  A
C2165      H2169   1.083       .  S
C2166      O2170   1.368       .  S
O2168      H2172   0.992       .  S
O2170      H2171   0.991       .  S
C2173      C2174   1.400       .  A
C2173      C2178   1.413       .  A
C2174      C2175   1.396       .  A
C2174      H2179   1.081       .  S
C2175      C2176   1.413       .  A
C2175      O2180   1.372       .  S
C2176      C2177   1.405       .  A
C2177      C2178   1.412       .  A
C2177      H2181   1.083       .  S
C2178      O2182   1.370       .  S
O2180      H2184   0.991       .  S
O2182      H2183   0.991       .  S
C2185      C2186   1.404       .  A
C2185      C2190   1.415       .  A
C2186      C2187   1.408       .  A
C2186      H2191   1.083       .  S
C2187      C2188   1.414       .  A
C2187      O2192   1.372       .  S
C2188      C2189   1.405       .  A
C2189      C2190   1.411       .  A
C2189      H2193   1.084       .  S
C2190      O2194   1.373       .  S
O2192      H2196   0.992       .  S
O2194      H2195   0.992       .  S
C2197      C2198   1.408       .  A
C2197      C2202   1.415       .  A
C2198      C2199   1.408       .  A
C2198      H2203   1.078       .  S
C2199      C2200   1.410       .  A
C2199      O2204   1.371       .  S
C2200      C2201   1.406       .  A
C2201      C2202   1.409       .  A
C2201      H2205   1.083       .  S
C2202      O2206   1.371       .  S
O2204      H2208   0.992       .  S
O2206      H2207   0.992       .  S
C2209      C2210   1.400       .  A
C2209      C2214   1.414       .  A
C2210      C2211   1.389       .  A
C2210      H2215   1.083       .  S
C2211      C2212   1.414       .  A
C2211      O2216   1.373       .  S
C2212      C2213   1.407       .  A
C2213      C2214   1.414       .  A
C2213      H2217   1.083       .  S
C2214      O2218   1.372       .  S
O2216      H2220   0.992       .  S
O2218      H2219   0.992       .  S
C2221      C2222   1.410       .  A
C2221      C2226   1.411       .  A
C2222      C2223   1.401       .  A
C2222      H2227   1.084       .  S
C2223      C2224   1.405       .  A
C2223      O2228   1.372       .  S
C2224      C2225   1.410       .  A
C2225      C2226   1.411       .  A
C2225      H2229   1.083       .  S
C2226      O2230   1.370       .  S
O2228      H2232   0.992       .  S
O2230      H2231   0.992       .  S
C2233      C2234   1.402       .  A
C2233      C2238   1.418       .  A
C2234      C2235   1.405       .  A
C2234      H2239   1.083       .  S
C2235      C2236   1.421       .  A
C2235      O2240   1.375       .  S
C2236      C2237   1.407       .  A
C2237      C2238   1.409       .  A
C2237      H2241   1.083       .  S
C2238      O2242   1.370       .  S
O2240      H2244   0.993       .  S
O2242      H2243   0.992       .  S
C2245      C2246   1.408       .  A
C2245      C2250   1.414       .  A
C2246      C2247   1.397       .  A
C2246      H2251   1.077       .  S
C2247      C2248   1.409       .  A
C2247      O2252   1.372       .  S
C2248      C2249   1.412       .  A
C2249      C2250   1.417       .  A
C2249      H2253   1.083       .  S
C2250      O2254   1.370       .  S
O2252      H2256   0.992       .  S
O2254      H2255   0.992       .  S
C2257      C2258   1.407       .  A
C2257      C2262   1.413       .  A
C2258      C2259   1.415       .  A
C2258      H2263   1.083       .  S
C2259      C2260   1.414       .  A
C2259      O2264   1.371       .  S
C2260      C2261   1.407       .  A
C2261      C2262   1.414       .  A
C2261      H2265   1.083       .  S
C2262      O2266   1.373       .  S
O2264      H2268   0.992       .  S
O2266      H2267   0.992       .  S
C2269      C2270   1.407       .  A
C2269      C2274   1.408       .  A
C2270      C2271   1.401       .  A
C2270      H2275   1.083       .  S
C2271      C2272   1.410       .  A
C2271      O2276   1.371       .  S
C2272      C2273   1.410       .  A
C2273      C2274   1.410       .  A
C2273      H2277   1.084       .  S
C2274      O2278   1.371       .  S
O2276      H2280   0.991       .  S
O2278      H2279   0.992       .  S
C2281      C2282   1.413       .  A
C2281      C2286   1.407       .  A
C2282      C2283   1.415       .  A
C2282      H2287   1.083       .  S
C2283      C2284   1.410       .  A
C2283      O2288   1.371       .  S
C2284      C2285   1.412       .  A
C2285      C2286   1.405       .  A
C2285      H2289   1.084       .  S
C2286      O2290   1.371       .  S
O2288      H2292   0.991       .  S
O2290      H2291   0.991       .  S
C2293      C2294   1.399       .  A
C2293      C2298   1.414       .  A
C2294      C2295   1.403       .  A
C2294      H2299   1.083       .  S
C2295      C2296   1.413       .  A
C2295      O2300   1.373       .  S
C2296      C2297   1.404       .  A
C2297      C2298   1.410       .  A
C2297      H2301   1.083       .  S
C2298      O2302   1.372       .  S
O2300      H2304   0.992       .  S
O2302      H2303   0.992       .  S
C2305      C2306   1.406       .  A
C2305      C2310   1.409       .  A
C2306      C2307   1.407       .  A
C2306      H2311   1.083       .  S
C2307      C2308   1.411       .  A
C2307      O2312   1.371       .  S
C2308      C2309   1.406       .  A
C2309      C2310   1.405       .  A
C2309      H2313   1.084       .  S
C2310      O2314   1.371       .  S
O2312      H2316   0.992       .  S
O2314      H2315   0.992       .  S
C2317      C2318   1.400       .  A
C2317      C2322   1.415       .  A
C2318      C2319   1.390       .  A
C2318      H2323   1.071       .  S
C2319      C2320   1.407       .  A
C2319      O2324   1.373       .  S
C2320      C2321   1.407       .  A
C2321      C2322   1.416       .  A
C2321      H2325   1.083       .  S
C2322      O2326   1.371       .  S
O2324      H2328   0.991       .  S
O2326      H2327   0.992       .  S
C2329      C2330   1.397       .  A
C2329      C2334   1.417       .  A
C2330      C2331   1.400       .  A
C2330      H2335   1.081       .  S
C2331      C2332   1.418       .  A
C2331      O2336   1.377       .  S
C2332      C2333   1.413       .  A
C2333      C2334   1.425       .  A
C2333      H2337   1.083       .  S
C2334      O2338   1.370       .  S
O2336      H2340   0.993       .  S
O2338      H2339   0.992       .  S
C2341      C2342   1.406       .  A
C2341      C2346   1.414       .  A
C2342      C2343   1.406       .  A
C2342      H2347   1.083       .  S
C2343      C2344   1.410       .  A
C2343      O2348   1.371       .  S
C2344      C2345   1.403       .  A
C2345      C2346   1.407       .  A
C2345      H2349   1.083       .  S
C2346      O2350   1.372       .  S
O2348      H2352   0.992       .  S
O2350      H2351   0.992       .  S
C2353      C2354   1.408       .  A
C2353      C2358   1.418       .  A
C2354      C2355   1.413       .  A
C2354      H2359   1.083       .  S
C2355      C2356   1.420       .  A
C2355      O2360   1.371       .  S
C2356      C2357   1.406       .  A
C2357      C2358   1.401       .  A
C2357      H2361   1.082       .  S
C2358      O2362   1.375       .  S
O2360      H2364   0.991       .  S
O2362      H2363   0.992       .  S
C2365      C2366   1.408       .  A
C2365      C2370   1.413       .  A
C2366      C2367   1.397       .  A
C2366      H2371   1.083       .  S
C2367      C2368   1.410       .  A
C2367      O2372   1.372       .  S
C2368      C2369   1.408       .  A
C2369      C2370   1.410       .  A
C2369      H2373   1.083       .  S
C2370      O2374   1.371       .  S
O2372      H2376   0.992       .  S
O2374      H2375   0.992       .  S
C2377      C2378   1.414       .  A
C2377      C2382   1.415       .  A
C2378      C2379   1.412       .  A
C2378      H2383   1.083       .  S
C2379      C2380   1.414       .  A
C2379      O2384   1.371       .  S
C2380      C2381   1.411       .  A
C2381      C2382   1.403       .  A
C2381      H2385   1.082       .  S
C2382      O2386   1.371       .  S
O2384      H2388   0.992       .  S
O2386      H2387   0.992       .  S
C2389      C2390   1.407       .  A
C2389      C2394   1.412       .  A
C2390      C2391   1.401       .  A
C2390      H2395   1.084       .  S
C2391      C2392   1.413       .  A
C2391      O2396   1.375       .  S
C2392      C2393   1.409       .  A
C2393      C2394   1.411       .  A
C2393      H2397   1.083       .  S
C2394      O2398   1.370       .  S
O2396      H2400   0.992       .  S
O2398      H2399   0.991       .  S
C2401      C2402   1.407       .  A
C2401      C2406   1.413       .  A
C2402      C2403   1.404       .  A
C2402      H2407   1.083       .  S
C2403      C2404   1.411       .  A
C2403      O2408   1.371       .  S
C2404      C2405   1.406       .  A
C2405      C2406   1.412       .  A
C2405      H2409   1.083       .  S
C2406      O2410   1.370       .  S
O2408      H2412   0.992       .  S
O2410      H2411   0.992       .  S
C2413      C2414   1.397       .  A
C2413      C2418   1.413       .  A
C2414      C2415   1.390       .  A
C2414      H2419   1.079       .  S
C2415      C2416   1.412       .  A
C2415      O2420   1.372       .  S
C2416      C2417   1.408       .  A
C2417      C2418   1.418       .  A
C2417      H2421   1.083       .  S
C2418      O2422   1.372       .  S
O2420      H2424   0.991       .  S
O2422      H2423   0.992       .  S
C2425      C2426   1.406       .  A
C2425      C2430   1.414       .  A
C2426      C2427   1.393       .  A
C2426      H2431   1.084       .  S
C2427      C2428   1.408       .  A
C2427      O2432   1.372       .  S
C2428      C2429   1.409       .  A
C2429      C2430   1.418       .  A
C2429      H2433   1.083       .  S
C2430      O2434   1.371       .  S
O2432      H2436   0.992       .  S
O2434      H2435   0.992       .  S
C2437      C2438   1.407       .  A
C2437      C2442   1.421       .  A
C2438      C2439   1.395       .  A
C2438      H2443   1.081       .  S
C2439      C2440   1.414       .  A
C2439      O2444   1.372       .  S
C2440      C2441   1.406       .  A
C2441      C2442   1.411       .  A
C2441      H2445   1.083       .  S
C2442      O2446   1.370       .  S
O2444      H2448   0.992       .  S
O2446      H2447   0.991       .  S
C2449      C2450   1.404       .  A
C2449      C2454   1.427       .  A
C2450      C2451   1.407       .  A
C2450      H2455   1.083       .  S
C2451      C2452   1.422       .  A
C2451      O2456   1.374       .  S
C2452      C2453   1.404       .  A
C2453      C2454   1.418       .  A
C2453      H2457   1.083       .  S
C2454      O2458   1.370       .  S
O2456      H2460   0.992       .  S
O2458      H2459   0.991       .  S
C2461      C2462   1.407       .  A
C2461      C2466   1.416       .  A
C2462      C2463   1.409       .  A
C2462      H2467   1.084       .  S
C2463      C2464   1.414       .  A
C2463      O2468   1.375       .  S
C2464      C2465   1.408       .  A
C2465      C2466   1.418       .  A
C2465      H2469   1.083       .  S
C2466      O2470   1.371       .  S
O2468      H2472   0.992       .  S
O2470      H2471   0.991       .  S
C2473      C2474   1.401       .  A
C2473      C2478   1.414       .  A
C2474      C2475   1.401       .  A
C2474      H2479   1.083       .  S
C2475      C2476   1.413       .  A
C2475      O2480   1.372       .  S
C2476      C2477   1.405       .  A
C2477      C2478   1.410       .  A
C2477      H2481   1.083       .  S
C2478      O2482   1.371       .  S
O2480      H2484   0.991       .  S
O2482      H2483   0.992       .  S
C2485      C2486   1.406       .  A
C2485      C2490   1.411       .  A
C2486      C2487   1.414       .  A
C2486      H2491   1.083       .  S
C2487      C2488   1.416       .  A
C2487      O2492   1.372       .  S
C2488      C2489   1.406       .  A
C2489      C2490   1.406       .  A
C2489      H2493   1.083       .  S
C2490      O2494   1.372       .  S
O2492      H2496   0.992       .  S
O2494      H2495   0.992       .  S
C2497      C2498   1.402       .  A
C2497      C2502   1.409       .  A
C2498      C2499   1.401       .  A
C2498      H2503   1.084       .  S
C2499      C2500   1.414       .  A
C2499      O2504   1.367       .  S
C2500      C2501   1.412       .  A
C2501      C2502   1.412       .  A
C2501      H2505   1.083       .  S
C2502      O2506   1.371       .  S
O2504      H2508   0.992       .  S
O2506      H2507   0.992       .  S
C2509      C2510   1.404       .  A
C2509      C2514   1.415       .  A
C2510      C2511   1.405       .  A
C2510      H2515   1.083       .  S
C2511      C2512   1.409       .  A
C2511      O2516   1.371       .  S
C2512      C2513   1.399       .  A
C2513      C2514   1.404       .  A
C2513      H2517   1.084       .  S
C2514      O2518   1.376       .  S
O2516      H2520   0.992       .  S
O2518      H2519   0.993       .  S
C2521      C2522   1.410       .  A
C2521      C2526   1.412       .  A
C2522      C2523   1.414       .  A
C2522      H2527   1.083       .  S
C2523      C2524   1.412       .  A
C2523      O2528   1.370       .  S
C2524      C2525   1.399       .  A
C2525      C2526   1.398       .  A
C2525      H2529   1.076       .  S
C2526      O2530   1.375       .  S
O2528      H2532   0.992       .  S
O2530      H2531   0.992       .  S
C2533      C2534   1.409       .  A
C2533      C2538   1.409       .  A
C2534      C2535   1.414       .  A
C2534      H2539   1.081       .  S
C2535      C2536   1.413       .  A
C2535      O2540   1.371       .  S
C2536      C2537   1.408       .  A
C2537      C2538   1.398       .  A
C2537      H2541   1.084       .  S
C2538      O2542   1.372       .  S
O2540      H2544   0.992       .  S
O2542      H2543   0.992       .  S
C2545      C2546   1.403       .  A
C2545      C2550   1.418       .  A
C2546      C2547   1.406       .  A
C2546      H2551   1.069       .  S
C2547      C2548   1.411       .  A
C2547      O2552   1.375       .  S
C2548      C2549   1.411       .  A
C2549      C2550   1.422       .  A
C2549      H2553   1.083       .  S
C2550      O2554   1.370       .  S
O2552      H2556   0.991       .  S
O2554      H2555   0.992       .  S
C2557      C2558   1.406       .  A
C2557      C2562   1.409       .  A
C2558      C2559   1.409       .  A
C2558      H2563   1.083       .  S
C2559      C2560   1.415       .  A
C2559      O2564   1.371       .  S
C2560      C2561   1.408       .  A
C2561      C2562   1.406       .  A
C2561      H2565   1.084       .  S
C2562      O2566   1.371       .  S
O2564      H2568   0.991       .  S
O2566      H2567   0.992       .  S
C2569      C2570   1.405       .  A
C2569      C2574   1.415       .  A
C2570      C2571   1.410       .  A
C2570      H2575   1.083       .  S
C2571      C2572   1.416       .  A
C2571      O2576   1.371       .  S
C2572      C2573   1.404       .  A
C2573      C2574   1.409       .  A
C2573      H2577   1.084       .  S
C2574      O2578   1.369       .  S
O2576      H2580   0.991       .  S
O2578      H2579   0.992       .  S
C2581      C2582   1.411       .  A
C2581      C2586   1.414       .  A
C2582      C2583   1.398       .  A
C2582      H2587   1.083       .  S
C2583      C2584   1.406       .  A
C2583      O2588   1.376       .  S
C2584      C2585   1.414       .  A
C2585      C2586   1.423       .  A
C2585      H2589   1.083       .  S
C2586      O2590   1.370       .  S
O2588      H2592   0.993       .  S
O2590      H2591   0.992       .  S
