geometry optimzed in LAMMPS
_audit_creation_date              2020-11-30 
_audit_creation_method            'lammps2cif' 
_symmetry_space_group_name_H-M    'P1' 
_symmetry_Int_Tables_number       1 
_symmetry_cell_setting            triclinic 
loop_ 
_symmetry_equiv_pos_as_xyz 
  x,y,z 
_cell_length_a                    57.61030911403669 
_cell_length_b                    57.72503186891929 
_cell_length_c                    57.683542449392846 
_cell_angle_alpha                 90.17606669854284 
_cell_angle_beta                  89.96422688125271 
_cell_angle_gamma                 90.1880210845497 
loop_ 
_atom_site_label 
_atom_site_type_symbol 
_atom_site_fract_x 
_atom_site_fract_y 
_atom_site_fract_z 
_atom_site_charge 
O1          O  0.73148623  0.27591097  0.03204239    -0.87930
C2          C  0.73547524  0.28887964  0.96293390     0.88100
Mg3        Mg  0.76231823  0.27312460  0.05239526     1.58150
O4          O  0.71741213  0.23240668  0.97725925    -0.87660
O5          O  0.69968087  0.25727905  0.02265204    -0.74990
C6          C  0.82212842  0.19271463  0.00069443     0.93150
O7          O  0.77054574  0.30413280  0.00389090    -0.74810
O8          O  0.82377974  0.20859626  0.01582551    -0.82310
Mg9        Mg  0.73082720  0.30559081  0.01023218     1.57960
C10         C  0.74865004  0.17822211  0.94128378     0.93070
O11         O  0.69185011  0.31110393  0.01640606    -0.80570
H12         H  0.69416976  0.21048999  0.99083408    -0.05920
C13         C  0.78679628  0.23872300  0.96268438     0.88010
O14         O  0.75766885  0.23314465  0.05251406    -0.75090
O15         O  0.72554405  0.28345741  0.98109650    -0.87850
O16         O  0.73483832  0.19523151  0.93922731    -0.80660
C17         C  0.68988643  0.25294745  0.92650285     0.93190
C18         C  0.67455802  0.30863108  0.00294676     0.93040
Mg19       Mg  0.76730780  0.19924249  0.98965902     1.57950
O20         O  0.80622100  0.19291615  0.98545473    -0.80580
O21         O  0.72769040  0.20020782  0.99398858    -0.74820
O22         O  0.68699058  0.26551470  0.94440423    -0.80660
O23         O  0.73598625  0.32877717  0.04091081    -0.82370
O24         O  0.80911609  0.23903869  0.05671306    -0.80690
C25         C  0.71221648  0.21423973  0.98725654     0.87480
O26         O  0.77183247  0.22168915  0.01929444    -0.87830
O27         O  0.76827944  0.22946731  0.96829286    -0.87940
O28         O  0.80165170  0.24472993  0.97785067    -0.75000
Mg29       Mg  0.69569449  0.26152969  0.98304859     1.57970
O30         O  0.70669055  0.23887966  0.92462133    -0.82370
H31         H  0.71148543  0.26030774  0.05571322    -0.06100
O32         O  0.78205610  0.27245072  0.02102859    -0.87640
H33         H  0.80419309  0.29356902  0.00459089    -0.05920
H34         H  0.75851418  0.19938089  0.04228223    -0.06100
C35         C  0.78647642  0.29008819  0.00973411     0.87450
C36         C  0.71415799  0.26454302  0.03766065     0.88040
C37         C  0.76254270  0.21718075  0.03806194     0.88080
H38         H  0.79036211  0.24190208  0.94456617    -0.06080
O39         O  0.74240968  0.27363991  0.94866551    -0.75100
Mg40       Mg  0.80298776  0.24177783  0.01778322     1.58000
H41         H  0.73889878  0.30695911  0.95942782    -0.06090
C42         C  0.75216649  0.32885916  0.05575873     0.93070
O43         O  0.79506082  0.27069360  0.07322389    -0.82330
C44         C  0.80971069  0.25442504  0.07249377     0.93130
O45         O  0.67322742  0.29226485  0.98836169    -0.82320
Mg46       Mg  0.73844764  0.23410247  0.94667545     1.58180
O47         O  0.76687695  0.31253788  0.05687669    -0.80650
O48         O  0.76320937  0.17689908  0.95774002    -0.82340
O49         O  0.78057893  0.52465920  0.76834253    -0.87930
C50         C  0.71111455  0.53683901  0.76091945     0.88100
Mg51       Mg  0.80355276  0.52091621  0.73975640     1.58150
O52         O  0.72720986  0.48014321  0.77580543    -0.87660
O53         O  0.77014754  0.50582166  0.79940612    -0.74990
C54         C  0.75161018  0.45040131  0.66670269     0.93150
O55         O  0.75556211  0.55384270  0.72787098    -0.74810
O56         O  0.76730160  0.46574132  0.66783209    -0.82310
Mg57       Mg  0.75829063  0.55435721  0.76751563     1.57960
C58         C  0.69296810  0.42572770  0.74133141     0.93070
O59         O  0.76054443  0.56019833  0.80656666    -0.80570
H60         H  0.74067199  0.45673696  0.79746473    -0.05920
C61         C  0.71449922  0.49201103  0.70736338     0.88010
O62         O  0.80069347  0.48109158  0.74199648    -0.75090
O63         O  0.72943180  0.53142493  0.77057043    -0.87850
O64         O  0.69128260  0.44256399  0.75549247    -0.80660
C65         C  0.67517560  0.49692798  0.80368674     0.93190
C66         C  0.74754058  0.55633061  0.82394788     0.93040
Mg67       Mg  0.73976751  0.44944857  0.72326308     1.57950
O68         O  0.73741402  0.44680887  0.68331473    -0.80580
O69         O  0.74309325  0.44811011  0.76332419    -0.74820
O70         O  0.69166064  0.51148513  0.80524419    -0.80660
O71         O  0.78869908  0.57844587  0.76428565    -0.82370
O72         O  0.80994646  0.49046955  0.68867053    -0.80690
C73         C  0.73706161  0.46158469  0.77974455     0.87480
O74         O  0.76984027  0.47139136  0.72194222    -0.87830
O75         O  0.71861679  0.47992384  0.72454115    -0.87940
O76         O  0.73071711  0.49933083  0.69424888    -0.75000
Mg77       Mg  0.73047731  0.50874561  0.79980361     1.57970
O78         O  0.67418677  0.48218893  0.78734402    -0.82370
H79         H  0.80375217  0.51088119  0.79006095    -0.06100
O80         O  0.77435941  0.52284460  0.71702888    -0.87640
H81         H  0.76070050  0.54493715  0.69420521    -0.05920
H82         H  0.79021007  0.44781614  0.73699133    -0.06100
C83         C  0.76373528  0.54073642  0.71219975     0.87450
C84         C  0.78568212  0.51394770  0.78610685     0.88040
C85         C  0.78701325  0.46592618  0.73354676     0.88080
H86         H  0.69674974  0.49665026  0.70352595    -0.06080
O87         O  0.69705725  0.52152618  0.75351083    -0.75100
Mg88       Mg  0.77069466  0.49482239  0.69336803     1.58000
H89         H  0.70711284  0.55495196  0.75847119    -0.06090
C90         C  0.80566156  0.57778171  0.75027441     0.93070
O91         O  0.82835552  0.51704904  0.70981297    -0.82330
C92         C  0.82788291  0.50250089  0.69328815     0.93130
O93         O  0.73335533  0.53943855  0.82447418    -0.82320
Mg94       Mg  0.69663748  0.48159715  0.75476933     1.58180
O95         O  0.81032981  0.55998152  0.73807734    -0.80650
O96         O  0.70779934  0.42579670  0.72500269    -0.82340
O97         O  0.49540276  0.73381543  0.78687474    -0.87930
C98         C  0.55407692  0.74086844  0.74727011     0.88100
Mg99       Mg  0.46633797  0.71327642  0.77528930     1.58150
O100        O  0.51828969  0.79003907  0.74815280    -0.87660
O101        O  0.50293784  0.76964825  0.79693075    -0.74990
C102        C  0.44999364  0.74580188  0.66596446     0.93150
O103        O  0.51913684  0.69594223  0.75270621    -0.74810
O104        O  0.44947691  0.72753854  0.67831731    -0.82310
Mg105      Mg  0.52909399  0.71748427  0.78452882     1.57960
C106        C  0.50213096  0.82436576  0.68722500     0.93070
O107        O  0.54437636  0.73371039  0.81775675    -0.80570
H108        H  0.50096940  0.81394078  0.76628972    -0.05920
C109        C  0.51256070  0.74720945  0.69290025     0.88010
O110        O  0.44776164  0.74504572  0.76097615    -0.75090
O111        O  0.54079189  0.74563861  0.76341445    -0.87850
O112        O  0.52063110  0.81893627  0.69825128    -0.80660
C113        C  0.57904233  0.80332154  0.74668562     0.93190
C114        C  0.55634286  0.75159135  0.82290169     0.93040
Mg115      Mg  0.47316585  0.77989058  0.70674108     1.57950
O116        O  0.46043926  0.76413845  0.67254723    -0.80580
O117        O  0.48259073  0.79977074  0.73981813    -0.74820
O118        O  0.57150038  0.79236829  0.76421956    -0.80660
O119        O  0.51620351  0.68833799  0.80639160    -0.82370
O120        O  0.43232164  0.70078797  0.72430710    -0.80690
C121        C  0.50090627  0.80198394  0.75182603     0.87480
O122        O  0.46166784  0.75065480  0.72622876    -0.87830
O123        O  0.50714204  0.76485792  0.70380734    -0.87940
O124        O  0.50125139  0.72838797  0.69471092    -0.75000
Mg125      Mg  0.53683197  0.77961690  0.77842060     1.57970
O126        O  0.56733723  0.80500763  0.72799837    -0.82370
H127        H  0.47570968  0.75117528  0.80952388    -0.06100
O128        O  0.48436294  0.70697695  0.74289697    -0.87640
H129        H  0.50070450  0.68115481  0.72660928    -0.05920
H130        H  0.43579330  0.76970222  0.73913468    -0.06100
C131        C  0.50109740  0.69396191  0.74031946     0.87450
C132        C  0.49083421  0.75128803  0.79841900     0.88040
C133        C  0.44770351  0.75550645  0.74170931     0.88080
H134        H  0.52801000  0.74753650  0.68225467    -0.06080
O135        O  0.55416732  0.75239212  0.72853824    -0.75100
Mg136      Mg  0.46711997  0.71678467  0.71147055     1.58000
H137        H  0.56549546  0.72613843  0.74890014    -0.06090
C138        C  0.49780843  0.67614369  0.80737230     0.93070
O139        O  0.43583081  0.69257297  0.76199157    -0.82330
C140        C  0.42494855  0.69107346  0.74276510     0.93130
O141        O  0.55649349  0.76946630  0.81018570    -0.82320
Mg142      Mg  0.53583064  0.78520605  0.71537454     1.58180
O143        O  0.47997366  0.68076994  0.79507367    -0.80650
O144        O  0.48435389  0.81128714  0.68709860    -0.82340
O145        O  0.26383552  0.74693834  0.04068595    -0.87930
C146        C  0.25415610  0.80461145  0.00116883     0.88100
Mg147      Mg  0.28473650  0.71814683  0.03053008     1.58150
O148        O  0.20633410  0.76644804  0.00339334    -0.87660
O149        O  0.22834943  0.75360007  0.05223159    -0.74990
C150        C  0.25084711  0.69256053  0.92493774     0.93150
O151        O  0.29901077  0.77047638  0.00409244    -0.74810
O152        O  0.26917387  0.69294904  0.93715839    -0.82310
Mg153      Mg  0.27928030  0.78082750  0.03690332     1.57960
C154        C  0.17439603  0.74888374  0.94103997     0.93070
O155        O  0.26435770  0.79497192  0.07067124    -0.80570
H156        H  0.18198663  0.74961951  0.02144880    -0.05920
C157        C  0.24930060  0.75800318  0.94693650     0.88010
O158        O  0.25283877  0.69754348  0.01879350    -0.75090
O159        O  0.24980237  0.79147659  0.01743119    -0.87850
O160        O  0.17930477  0.76687144  0.95290463    -0.80660
C161        C  0.18824824  0.82477109  0.99945103     0.93190
C162        C  0.24642404  0.80598964  0.07713592     0.93040
Mg163      Mg  0.21696810  0.71974322  0.96333255     1.57950
O164        O  0.23286995  0.70416471  0.93035872    -0.80580
O165        O  0.19645668  0.73067618  0.99557825    -0.74820
O166        O  0.19892276  0.81938597  0.01810723    -0.80660
O167        O  0.31009238  0.77015453  0.05727031    -0.82370
O168        O  0.29590579  0.68147021  0.98322507    -0.80690
C169        C  0.19422196  0.74919815  0.00723630     0.87480
O170        O  0.24601584  0.70936869  0.98361219    -0.87830
O171        O  0.23266611  0.75357444  0.95968337    -0.87940
O172        O  0.26800306  0.74653881  0.94801133    -0.75000
Mg173      Mg  0.21625256  0.78623600  0.03328556     1.57970
O174        O  0.18997201  0.81269430  0.98104419    -0.82370
H175        H  0.24827010  0.72764179  0.06486982    -0.06100
O176        O  0.28955626  0.73441191  0.99711968    -0.87640
H177        H  0.31319312  0.75133109  0.97822884    -0.05920
H178        H  0.22752473  0.68403081  0.99835901    -0.06100
C179        C  0.30132571  0.75177984  0.99274929     0.87450
C180        C  0.24712902  0.74225649  0.05325434     0.88040
C181        C  0.24168054  0.69627744  0.99991870     0.88080
H182        H  0.24814368  0.77241565  0.93507252    -0.06080
O183        O  0.24335546  0.80311182  0.98211501    -0.75100
Mg184      Mg  0.27970733  0.71423697  0.96783823     1.58000
H185        H  0.26815505  0.81701678  0.00288673    -0.06090
C186        C  0.32256682  0.75210654  0.05779238     0.93070
O187        O  0.30654677  0.68797438  0.01975470    -0.82330
C188        C  0.30731058  0.67596493  0.00128249     0.93130
O189        O  0.22782453  0.80635024  0.06511546    -0.82320
Mg190      Mg  0.21170800  0.78250374  0.96994830     1.58180
O191        O  0.31732850  0.73389476  0.04650658    -0.80650
O192        O  0.18672672  0.73069696  0.94177195    -0.82340
O193        O  0.50462541  0.54508632  0.48437167    -0.87930
C194        C  0.44875534  0.50005798  0.48791975     0.88100
Mg195      Mg  0.53560215  0.53714777  0.46507423     1.58150
O196        O  0.48210921  0.50202271  0.53887463    -0.87660
O197        O  0.49460498  0.55232559  0.52030368    -0.74990
C198        C  0.56413513  0.43222777  0.49886785     0.93150
O199        O  0.48618755  0.50865637  0.44545299    -0.74810
O200        O  0.56379806  0.44494929  0.48098371    -0.82310
Mg201      Mg  0.47198063  0.53907732  0.46657995     1.57960
C202        C  0.50020156  0.44017607  0.57012026     0.93070
O203        O  0.45328657  0.57017229  0.48258227    -0.80570
H204        H  0.49408223  0.51972942  0.56619569    -0.05920
C205        C  0.49679069  0.44924311  0.49467413     0.88010
O206        O  0.55399332  0.52477123  0.49819178    -0.75090
O207        O  0.46089765  0.51666860  0.49391746    -0.87850
O208        O  0.48181806  0.45069492  0.56401267    -0.80660
C209        C  0.42277178  0.49484663  0.55179555     0.93190
C210        C  0.44068937  0.57436727  0.50021626     0.93040
Mg211      Mg  0.53138186  0.46664256  0.53140416     1.57950
O212        O  0.55099029  0.43592786  0.51616605    -0.80580
O213        O  0.51682281  0.49664017  0.55263489    -0.74820
O214        O  0.42845157  0.51327629  0.54102312    -0.80660
O215        O  0.48344796  0.56234346  0.43795744    -0.82370
O216        O  0.57573993  0.49190585  0.45838348    -0.80690
C217        C  0.49724522  0.50646455  0.55331449     0.87480
O218        O  0.54238553  0.48923139  0.50403209    -0.87830
O219        O  0.49916498  0.46066275  0.51266237    -0.87940
O220        O  0.50954291  0.45264571  0.47707009    -0.75000
Mg221      Mg  0.46199383  0.53086956  0.52848995     1.57970
O222        O  0.43533520  0.47676147  0.55132773    -0.82370
H223        H  0.52140549  0.56829029  0.50398377    -0.06100
O224        O  0.52126962  0.50319644  0.45841554    -0.87640
H225        H  0.50836659  0.48504647  0.43180275    -0.05920
H226        H  0.56559676  0.50479279  0.52464455    -0.06100
C227        C  0.50566567  0.49858423  0.44450495     0.87450
C228        C  0.50732087  0.55593240  0.50268320     0.88040
C229        C  0.55456239  0.50598733  0.50954504     0.88080
H230        H  0.48292403  0.43661927  0.49361275    -0.06080
O231        O  0.44962198  0.48085197  0.49846529    -0.75100
Mg232      Mg  0.54187658  0.47459855  0.46960470     1.58000
H233        H  0.43767581  0.50170195  0.47289802    -0.06090
C234        C  0.50202283  0.56528998  0.42643222     0.93070
O235        O  0.56795608  0.52715690  0.44487044    -0.82330
C236        C  0.58090252  0.50928134  0.44589937     0.93130
O237        O  0.44058498  0.56135600  0.51792489    -0.82320
Mg238      Mg  0.46788143  0.46819132  0.53131364     1.58180
O239        O  0.52091947  0.55509402  0.43187196    -0.80650
O240        O  0.51938996  0.44293263  0.55957510    -0.82340
O241        O  0.23786705  0.95811899  0.75463686    -0.87930
C242        C  0.24727825  0.99865156  0.69664958     0.88100
Mg243      Mg  0.21643445  0.96818162  0.78339570     1.58150
O244        O  0.29372222  0.99973887  0.73651539    -0.87660
O245        O  0.27406956  0.94886072  0.74833076    -0.74990
C246        C  0.24569687  0.07645803  0.80665954     0.93150
O247        O  0.20057355  0.99224970  0.73083875    -0.74810
O248        O  0.22810752  0.06318035  0.80669486    -0.82310
Mg249      Mg  0.22315320  0.96133275  0.72042350     1.57960
C250        C  0.32217441  0.06483843  0.75147380     0.93070
O251        O  0.24200355  0.92992782  0.70494512    -0.80570
H252        H  0.31971008  0.98383391  0.75291846    -0.05920
C253        C  0.24804842  0.05322645  0.74127652     0.88010
O254        O  0.24801440  0.98265561  0.80300398    -0.75090
O255        O  0.25173210  0.98326470  0.71072144    -0.87850
O256        O  0.31858874  0.05144319  0.73437687    -0.80660
C257        C  0.31488322  0.00364836  0.67964666     0.93190
C258        C  0.25996225  0.92612373  0.69249727     0.93040
Mg259      Mg  0.28118887  0.04039804  0.78046523     1.57950
O260        O  0.26322219  0.07260025  0.79391886    -0.80580
O261        O  0.30432776  0.00950666  0.77140767    -0.74820
O262        O  0.30353966  0.98548841  0.68501727    -0.80660
O263        O  0.19274299  0.93804894  0.73083724    -0.82370
O264        O  0.20579734  0.01664101  0.81923342    -0.80690
C265        C  0.30663208  0.99721749  0.75334225     0.87480
O266        O  0.25353208  0.01798160  0.79057399    -0.87830
O267        O  0.26554595  0.04207466  0.74643610    -0.87940
O268        O  0.22925744  0.05107418  0.75254706    -0.75000
Mg269      Mg  0.28619700  0.96942955  0.71650751     1.57970
O270        O  0.31238962  0.02260559  0.69044127    -0.82370
H271        H  0.25434531  0.93442479  0.77364408    -0.06100
O272        O  0.21037237  0.00098306  0.76635065    -0.87640
H273        H  0.18476706  0.01730847  0.74978774    -0.05920
H274        H  0.27285380  0.00419387  0.81573510    -0.06100
C275        C  0.19783565  0.00391691  0.74928251     0.87450
C276        C  0.25514990  0.94646726  0.75934648     0.88040
C277        C  0.25859906  0.00195659  0.80374602     0.88080
H278        H  0.24854738  0.06452254  0.72636745    -0.06080
O279        O  0.25769481  0.01799858  0.69728976    -0.75100
Mg280      Mg  0.21917287  0.03160736  0.78566549     1.58000
H281        H  0.23376226  0.99581325  0.68395048    -0.06090
C282        C  0.17993832  0.93674554  0.74886618     0.93070
O283        O  0.19473958  0.97987864  0.81444818    -0.82330
C284        C  0.19493154  0.99879063  0.82605693     0.93130
O285        O  0.27812567  0.93856442  0.69371439    -0.82320
Mg286      Mg  0.28795000  0.03244051  0.71871981     1.58180
O287        O  0.18446373  0.94848114  0.76724545    -0.80650
O288        O  0.30972008  0.06423184  0.76959564    -0.82340
O289        O  0.71693111  0.73351458  0.47599280    -0.87930
C290        C  0.78706189  0.73650606  0.46737854     0.88100
Mg291      Mg  0.69623815  0.76409371  0.47689196     1.58150
O292        O  0.76790946  0.72248744  0.52362860    -0.87660
O293        O  0.72443487  0.70236469  0.49603598    -0.74990
C294        C  0.74556331  0.83225708  0.55212593     0.93150
O295        O  0.74648727  0.77076698  0.44681436    -0.74810
O296        O  0.73194733  0.83246476  0.53497954    -0.82310
Mg297      Mg  0.74030632  0.73128805  0.44737710     1.57960
C298        C  0.79929632  0.75664210  0.57999324     0.93070
O299        O  0.73468692  0.69215889  0.44338263    -0.80570
H300        H  0.75165010  0.70168421  0.54611056    -0.05920
C301        C  0.78490325  0.79056203  0.51312860     0.88010
O302        O  0.69488501  0.76219906  0.51681404    -0.75090
O303        O  0.76819939  0.72721973  0.47171122    -0.87850
O304        O  0.80280811  0.74255970  0.56324911    -0.80660
C305        C  0.82056213  0.69340505  0.50785421     0.93190
C306        C  0.74726327  0.67457857  0.44746845     0.93040
Mg307      Mg  0.75472298  0.77565144  0.55292191     1.57950
O308        O  0.75874398  0.81513183  0.55646074    -0.80580
O309        O  0.74954162  0.73596654  0.55394114    -0.74820
O310        O  0.80283655  0.69035531  0.49505298    -0.80660
O311        O  0.71053852  0.73541271  0.42213933    -0.82370
O312        O  0.69193814  0.81472800  0.50630203    -0.80690
C313        C  0.75634365  0.71918705  0.54136249     0.87480
O314        O  0.72705530  0.77874737  0.52841411    -0.87830
O315        O  0.77843926  0.77347735  0.52430990    -0.87940
O316        O  0.77041595  0.80463186  0.50440122    -0.75000
Mg317      Mg  0.76422682  0.69868987  0.49507250     1.57970
O318        O  0.82183678  0.70995944  0.52242997    -0.82370
H319        H  0.69178472  0.71398932  0.48984711    -0.06100
O320        O  0.72768367  0.78388220  0.47701163    -0.87640
H321        H  0.74459099  0.80491874  0.45522012    -0.05920
H322        H  0.70338400  0.76662493  0.55072909    -0.06100
C323        C  0.73959859  0.78738512  0.45954227     0.87450
C324        C  0.71018879  0.71655648  0.48717362     0.88040
C325        C  0.70830551  0.76927294  0.53284092     0.88080
H326        H  0.80326220  0.79341564  0.51042891    -0.06080
O327        O  0.80035079  0.74373763  0.48344924    -0.75100
Mg328      Mg  0.73044980  0.80748852  0.50528212     1.58000
H329        H  0.79219131  0.73889240  0.44951000    -0.06090
C330        C  0.69568418  0.75159197  0.42129752     0.93070
O331        O  0.67393116  0.79626163  0.47771126    -0.82330
C332        C  0.67477196  0.81226303  0.49278371     0.93130
O333        O  0.76118506  0.67391276  0.46452306    -0.82320
Mg334      Mg  0.79932082  0.74268670  0.52345433     1.58180
O335        O  0.69345145  0.76626633  0.43759046    -0.80650
O336        O  0.78414446  0.77252799  0.57893875    -0.82340
O337        O  0.98746388  0.74827163  0.20449070    -0.87930
C338        C  0.99866363  0.80512882  0.24396576     0.88100
Mg339      Mg  0.96521404  0.72080876  0.21560744     1.58150
O340        O  0.04532001  0.76595167  0.24111649    -0.87660
O341        O  0.02290988  0.75398830  0.19220771    -0.74990
C342        C  0.00020502  0.69518508  0.32186796     0.93150
O343        O  0.95266880  0.77354906  0.24005679    -0.74810
O344        O  0.98195642  0.69657230  0.30948764    -0.82310
Mg345      Mg  0.97347133  0.78266424  0.20722927     1.57960
C346        C  0.07964763  0.74991190  0.30127272     0.93070
O347        O  0.99119681  0.79460045  0.17385085    -0.80570
H348        H  0.06867971  0.74839781  0.22250093    -0.05920
C349        C  0.00428878  0.75962450  0.29888472     0.88010
O350        O  0.99631637  0.69908648  0.22745062    -0.75090
O351        O  0.00298786  0.79235964  0.22733033    -0.87850
O352        O  0.07380799  0.76754895  0.28965041    -0.80660
C353        C  0.06504499  0.82411219  0.24501804     0.93190
C354        C  0.00837031  0.80773507  0.16903955     0.93040
Mg355      Mg  0.03507528  0.72021650  0.28214696     1.57950
O356        O  0.01915647  0.70520933  0.31609634    -0.80580
O357        O  0.05469519  0.73017843  0.24909239    -0.74820
O358        O  0.05449167  0.81854921  0.22644489    -0.80660
O359        O  0.94164021  0.77329472  0.18585004    -0.82370
O360        O  0.95295610  0.68523264  0.26376933    -0.80690
C361        C  0.05692270  0.74843920  0.23711643     0.87480
O362        O  0.00479245  0.71043589  0.26262766    -0.87830
O363        O  0.02030833  0.75433709  0.28572840    -0.87940
O364        O  0.98486155  0.74935284  0.29797896    -0.75000
Mg365      Mg  0.03649973  0.78621642  0.21155847     1.57970
O366        O  0.06291435  0.81243983  0.26347160    -0.82370
H367        H  0.00193915  0.72836118  0.18005818    -0.06100
O368        O  0.96209826  0.73792315  0.24879180    -0.87640
H369        H  0.93846713  0.75573096  0.26686886    -0.05920
H370        H  0.02154803  0.68444664  0.24701397    -0.06100
C371        C  0.95043202  0.75550072  0.25242400     0.87450
C372        C  0.00379149  0.74299681  0.19165763     0.88040
C373        C  0.00798518  0.69730365  0.24600332     0.88080
H374        H  0.00658197  0.77393997  0.31080311    -0.06080
O375        O  0.00935321  0.80323617  0.26303684    -0.75100
Mg376      Mg  0.97147809  0.71753331  0.27845801     1.58000
H377        H  0.98467956  0.81749041  0.24257034    -0.06090
C378        C  0.92828515  0.75575737  0.18698819     0.93070
O379        O  0.94186191  0.69168239  0.22737708    -0.82330
C380        C  0.94089422  0.67994613  0.24598698     0.93130
O381        O  0.02674588  0.80814961  0.18113460    -0.82320
Mg382      Mg  0.04109641  0.78273674  0.27448359     1.58180
O383        O  0.93313293  0.73831522  0.19961613    -0.80650
O384        O  0.06722124  0.73157543  0.30204902    -0.82340
O385        O  0.23393193  0.29672076  0.49188158    -0.87930
C386        C  0.24319129  0.25795747  0.55049626     0.88100
Mg387      Mg  0.21324586  0.28461308  0.46333285     1.58150
O388        O  0.29203351  0.25915282  0.51385495    -0.87660
O389        O  0.26988104  0.30720023  0.49877123    -0.74990
C390        C  0.24843822  0.17768933  0.44377377     0.93150
O391        O  0.19818209  0.26118928  0.51670935    -0.74810
O392        O  0.23002498  0.18967691  0.44445208    -0.82310
Mg393      Mg  0.21851626  0.29406139  0.52585865     1.57960
C394        C  0.32573588  0.19731571  0.49802035     0.93070
O395        O  0.23422848  0.32824139  0.53899320    -0.80570
H396        H  0.31632001  0.27710712  0.49683592    -0.05920
C397        C  0.24976966  0.20260031  0.50773632     0.88010
O398        O  0.24555683  0.27171966  0.44417348    -0.75090
O399        O  0.24775941  0.27416576  0.53731589    -0.87850
O400        O  0.32026186  0.20878407  0.51618201    -0.80660
C401        C  0.30774291  0.25712483  0.57327074     0.93190
C402        C  0.25193506  0.33405752  0.55087738     0.93040
Mg403      Mg  0.28227906  0.21772276  0.46849408     1.57950
O404        O  0.26690154  0.18395921  0.45417453    -0.80580
O405        O  0.30228883  0.25058864  0.47840066    -0.74820
O406        O  0.29747015  0.27562742  0.56693123    -0.80660
O407        O  0.18754596  0.31429253  0.51411509    -0.82370
O408        O  0.20396251  0.23405309  0.42937094    -0.80690
C409        C  0.30426442  0.26271513  0.49665126     0.87480
O410        O  0.25284736  0.23723961  0.45777643    -0.87830
O411        O  0.26675928  0.21451175  0.50232771    -0.87940
O412        O  0.23070788  0.20393819  0.49688472    -0.75000
Mg413      Mg  0.28155991  0.28955267  0.53249415     1.57970
O414        O  0.30712331  0.23861326  0.56127754    -0.82370
H415        H  0.25090849  0.31926846  0.47178529    -0.06100
O416        O  0.20875567  0.25214210  0.48149145    -0.87640
H417        H  0.18415342  0.23454327  0.49844818    -0.05920
H418        H  0.27135993  0.25118189  0.43202088    -0.06100
C419        C  0.19630224  0.24885794  0.49859149     0.87450
C420        C  0.25130449  0.30834362  0.48696863     0.88040
C421        C  0.25703249  0.25302282  0.44399229     0.88080
H422        H  0.25085747  0.19154236  0.52278788    -0.06080
O423        O  0.25443774  0.23910878  0.54985762    -0.75100
Mg424      Mg  0.21926242  0.22153281  0.46343227     1.58000
H425        H  0.22870584  0.25956947  0.56231091    -0.06090
C426        C  0.17473305  0.31418153  0.49617045     0.93070
O427        O  0.19248038  0.27074874  0.43301717    -0.82330
C428        C  0.19269845  0.25145604  0.42214512     0.93130
O429        O  0.27009996  0.32156546  0.55168096    -0.82320
Mg430      Mg  0.28692700  0.22620140  0.53086778     1.58180
O431        O  0.17993143  0.30236411  0.47812832    -0.80650
O432        O  0.31322851  0.19753282  0.47988207    -0.82340
O433        O  0.26221097  0.50446160  0.21351632    -0.87930
C434        C  0.25348214  0.44728871  0.25420968     0.88100
Mg435      Mg  0.28298504  0.53399643  0.22359096     1.58150
O436        O  0.20636502  0.48600302  0.25090514    -0.87660
O437        O  0.22756081  0.49640552  0.20069849    -0.74990
C438        C  0.24983773  0.55824492  0.33092549     0.93150
O439        O  0.29862359  0.48255590  0.24933209    -0.74810
O440        O  0.26830876  0.55886475  0.31870138    -0.82310
Mg441      Mg  0.27815575  0.47081159  0.21730557     1.57960
C442        C  0.17357358  0.50358541  0.31246155     0.93070
O443        O  0.26245454  0.45344155  0.18459129    -0.80570
H444        H  0.18281299  0.50303017  0.23215046    -0.05920
C445        C  0.24881869  0.49421150  0.30725426     0.88010
O446        O  0.25134005  0.55428691  0.23579592    -0.75090
O447        O  0.24927336  0.46016360  0.23772125    -0.87850
O448        O  0.17853596  0.48595752  0.30029454    -0.80660
C449        C  0.18687333  0.42854994  0.25663164     0.93190
C450        C  0.24476095  0.44113627  0.17928301     0.93040
Mg451      Mg  0.21661659  0.53245816  0.29131294     1.57950
O452        O  0.23209338  0.54659331  0.32484967    -0.80580
O453        O  0.19667541  0.52185796  0.25850223    -0.74820
O454        O  0.19887616  0.43341647  0.23871230    -0.80660
O455        O  0.30803573  0.48254570  0.19556971    -0.82370
O456        O  0.29663048  0.57136170  0.27154744    -0.80690
C457        C  0.19461609  0.50336184  0.24671264     0.87480
O458        O  0.24573751  0.54337572  0.27150614    -0.87830
O459        O  0.23224989  0.49874706  0.29452624    -0.87940
O460        O  0.26755327  0.50575289  0.30637458    -0.75000
Mg461      Mg  0.21569677  0.46484703  0.22177041     1.57970
O462        O  0.18796174  0.44036340  0.27512183    -0.82370
H463        H  0.24763956  0.52223371  0.18766939    -0.06100
O464        O  0.28881147  0.51830285  0.25712050    -0.87640
H465        H  0.31323670  0.50165669  0.27505177    -0.05920
H466        H  0.22698813  0.56841847  0.25684900    -0.06100
C467        C  0.30092132  0.50112642  0.26092433     0.87450
C468        C  0.24610887  0.50823823  0.19999442     0.88040
C469        C  0.24101145  0.55613727  0.25508012     0.88080
H470        H  0.24757384  0.47964177  0.31892692    -0.06080
O471        O  0.24239442  0.44892661  0.27311985    -0.75100
Mg472      Mg  0.27943975  0.53833194  0.28702185     1.58000
H473        H  0.26744141  0.43489516  0.25276424    -0.06090
C474        C  0.32023693  0.50092382  0.19477847     0.93070
O475        O  0.30469794  0.56465362  0.23431988    -0.82330
C476        C  0.30688870  0.57677466  0.25266838     0.93130
O477        O  0.22613621  0.44181757  0.19120916    -0.82320
Mg478      Mg  0.21086712  0.47007775  0.28474369     1.58180
O479        O  0.31530751  0.51884889  0.20662875    -0.80650
O480        O  0.18612937  0.52165525  0.31247259    -0.82340
O481        O  0.47512492  0.21936781  0.23028092    -0.87930
C482        C  0.46002443  0.28826371  0.23695373     0.88100
Mg483      Mg  0.47971510  0.19726631  0.25929826     1.58150
O484        O  0.51645751  0.27610063  0.21709406    -0.87660
O485        O  0.49182915  0.23077049  0.19817709    -0.74990
C486        C  0.55606693  0.25173300  0.32266372     0.93150
O487        O  0.44645944  0.24498547  0.27110915    -0.74810
O488        O  0.54072286  0.23601299  0.32350927    -0.82310
Mg489      Mg  0.44464247  0.24018070  0.23155657     1.57960
C490        C  0.57108665  0.31187971  0.24961223     0.93070
O491        O  0.43853560  0.23371607  0.19318801    -0.80570
H492        H  0.53853593  0.26277955  0.19387399    -0.05920
C493        C  0.50933075  0.28779233  0.28708876     0.88010
O494        O  0.51950510  0.19976969  0.25465177    -0.75090
O495        O  0.46588889  0.27032173  0.22688808    -0.87850
O496        O  0.55368604  0.31440372  0.23625319    -0.80660
C497        C  0.49512556  0.32684145  0.19120563     0.93190
C498        C  0.43832238  0.24832339  0.17693929     0.93040
Mg499      Mg  0.55044616  0.26297975  0.26718284     1.57950
O500        O  0.55699498  0.26624026  0.30615234    -0.80580
O501        O  0.54891285  0.25958517  0.22736731    -0.74820
O502        O  0.48141997  0.30959966  0.18880840    -0.80660
O503        O  0.42225092  0.20927616  0.23600002    -0.82370
O504        O  0.51385885  0.19288565  0.30721488    -0.80690
C505        C  0.53473248  0.26622194  0.21191166     0.87480
O506        O  0.52917653  0.23256742  0.27094497    -0.87830
O507        O  0.51963544  0.28357857  0.26875252    -0.87940
O508        O  0.50358459  0.27171796  0.30102887    -0.75000
Mg509      Mg  0.48618743  0.27028379  0.19608276     1.57970
O510        O  0.50951822  0.32819320  0.20786151    -0.82370
H511        H  0.49061064  0.19718947  0.20855676    -0.06100
O512        O  0.47847516  0.22736400  0.28100928    -0.87640
H513        H  0.45733387  0.24181294  0.30443585    -0.05920
H514        H  0.55274089  0.21157824  0.25654554    -0.06100
C515        C  0.46063938  0.23795145  0.28638429     0.87450
C516        C  0.48585973  0.21492441  0.21225337     0.88040
C517        C  0.53469426  0.21461941  0.26066442     0.88080
H518        H  0.50487458  0.30550381  0.29124455    -0.06080
O519        O  0.47496930  0.30308226  0.24350637    -0.75100
Mg520      Mg  0.50873319  0.23197628  0.30185195     1.58000
H521        H  0.44186403  0.29120799  0.24061785    -0.06090
C522        C  0.42327927  0.19264761  0.25014952     0.93070
O523        O  0.48428625  0.17481069  0.29030724    -0.82330
C524        C  0.49979293  0.17591925  0.30582862     0.93130
O525        O  0.45341101  0.26437814  0.17543431    -0.82320
Mg526      Mg  0.51460407  0.30589370  0.23938229     1.58180
O527        O  0.44069662  0.18956717  0.26329120    -0.80650
O528        O  0.57246202  0.29521874  0.26383687    -0.82340
O529        O  0.01492342  0.27829988  0.72078830    -0.87930
C530        C  0.00839805  0.28979578  0.79012650     0.88100
Mg531      Mg  0.98490448  0.27679787  0.69884244     1.58150
O532        O  0.02406304  0.23312503  0.77498647    -0.87660
O533        O  0.04528508  0.25802293  0.73109422    -0.74990
C534        C  0.91595271  0.20149492  0.74861663     0.93150
O535        O  0.97647402  0.30821672  0.74789635    -0.74810
O536        O  0.91587452  0.21825081  0.73449030    -0.82310
Mg537      Mg  0.01634650  0.30761704  0.74356319     1.57960
C538        C  0.99104166  0.17759088  0.80683719     0.93070
O539        O  0.05573270  0.31130938  0.73915824    -0.80570
H540        H  0.04625478  0.21066121  0.76068332    -0.05920
C541        C  0.95505956  0.24289438  0.78774515     0.88010
O542        O  0.98667615  0.23673515  0.69901363    -0.75090
O543        O  0.01903995  0.28456326  0.77225714    -0.87850
O544        O  0.00363470  0.19532003  0.81090504    -0.80660
C545        C  0.05007670  0.25199050  0.82780888     0.93190
C546        C  0.07330598  0.30699651  0.75170506     0.93040
Mg547      Mg  0.97250097  0.20226464  0.75995249     1.57950
O548        O  0.93289868  0.19771334  0.76228921    -0.80580
O549        O  0.01228416  0.20210693  0.75659383    -0.74820
O550        O  0.05430470  0.26431321  0.81003662    -0.80660
O551        O  0.01375070  0.33226869  0.71375311    -0.82370
O552        O  0.93436940  0.24642729  0.69336043    -0.80690
C553        C  0.02838319  0.21513041  0.76419889     0.87480
O554        O  0.96967124  0.22582742  0.73112415    -0.87830
O555        O  0.97262367  0.23174848  0.78262168    -0.87940
O556        O  0.94169561  0.25102301  0.77226788    -0.75000
Mg557      Mg  0.04777970  0.26135495  0.77091405     1.57970
O558        O  0.03316214  0.23784509  0.82862389    -0.82370
H559        H  0.03517042  0.26222363  0.69763899    -0.06100
O560        O  0.96382461  0.27751482  0.72942500    -0.87640
H561        H  0.94230148  0.29984364  0.74495707    -0.05920
H562        H  0.98259592  0.20303409  0.70836154    -0.06100
C563        C  0.96000800  0.29532029  0.74074834     0.87450
C564        C  0.03189513  0.26624413  0.71566212     0.88040
C565        C  0.97962845  0.22100428  0.71275010     0.88080
H566        H  0.95123243  0.24620397  0.80580215    -0.06080
O567        O  0.00021354  0.27444277  0.80361734    -0.75100
Mg568      Mg  0.94041381  0.24867196  0.73238424     1.58000
H569        H  0.00548109  0.30787585  0.79406733    -0.06090
C570        C  0.99842860  0.33308837  0.69805788     0.93070
O571        O  0.95292786  0.27489168  0.67522984    -0.82330
C572        C  0.93712009  0.25946745  0.67586122     0.93130
O573        O  0.07320542  0.29091789  0.76666426    -0.82320
Mg574      Mg  0.00212062  0.23465463  0.80496411     1.58180
O575        O  0.98404232  0.31657203  0.69460919    -0.80650
O576        O  0.97597481  0.17731201  0.79067132    -0.82340
O577        O  0.98119252  0.50096492  0.03965362    -0.87930
C578        C  0.98783004  0.44543071  0.99723245     0.88100
Mg579      Mg  0.96266639  0.53101892  0.02883781     1.58150
O580        O  0.03820986  0.47973599  0.00080107    -0.87660
O581        O  0.01690732  0.49338389  0.04983722    -0.74990
C582        C  0.00044442  0.55768373  0.92364241     0.93150
O583        O  0.94553213  0.48077015  0.00191221    -0.74810
O584        O  0.98223687  0.55731198  0.93612707    -0.82310
Mg585      Mg  0.96397269  0.46795849  0.03477745     1.57960
C586        C  0.07514649  0.49597522  0.94110578     0.93070
O587        O  0.97881892  0.45070289  0.06858867    -0.80570
H588        H  0.06365935  0.49370835  0.01980982    -0.05920
C589        C  0.99847342  0.49176780  0.94384256     0.88010
O590        O  0.99646221  0.54940964  0.01832680    -0.75090
O591        O  0.99290410  0.45680592  0.01471643    -0.87850
O592        O  0.06823496  0.47755603  0.95126796    -0.80660
C593        C  0.05023964  0.41938053  0.99718127     0.93190
C594        C  0.99741260  0.43997746  0.07417069     0.93040
Mg595      Mg  0.03278561  0.52779201  0.96211323     1.57950
O596        O  0.01846351  0.54591981  0.92886371    -0.80580
O597        O  0.05152152  0.51461577  0.99441037    -0.74820
O598        O  0.03963448  0.42633124  0.01520184    -0.80660
O599        O  0.93258533  0.48033649  0.05441955    -0.82370
O600        O  0.95500390  0.56978359  0.98222146    -0.80690
C601        C  0.05181881  0.49565079  0.00541752     0.87480
O602        O  0.00370096  0.53932772  0.98240451    -0.87830
O603        O  0.01543429  0.49497015  0.95652325    -0.87940
O604        O  0.98028705  0.50393921  0.94568440    -0.75000
Mg605      Mg  0.02669151  0.46038796  0.03023238     1.57970
O606        O  0.05126433  0.43141610  0.97869951    -0.82370
H607        H  0.99795617  0.51949476  0.06373171    -0.06100
O608        O  0.95855236  0.51572543  0.99499048    -0.87640
H609        H  0.93384343  0.50088914  0.97563298    -0.05920
H610        H  0.02345069  0.56211785  0.99961735    -0.06100
C611        C  0.94535907  0.49944773  0.99034610     0.87450
C612        C  0.99837434  0.50499948  0.05182608     0.88040
C613        C  0.00835804  0.55093997  0.99984589     0.88080
H614        H  0.99881316  0.47768791  0.93144594    -0.06080
O615        O  0.99935452  0.44699069  0.97853361    -0.75100
Mg616      Mg  0.96998211  0.53626822  0.96631186     1.58000
H617        H  0.97253232  0.43453844  0.99758554    -0.06090
C618        C  0.92086048  0.49899116  0.05323858     0.93070
O619        O  0.94329238  0.56279519  0.01826682    -0.82330
C620        C  0.94356688  0.57541313  0.00029318     0.93130
O621        O  0.01542042  0.44062570  0.06148671    -0.82320
Mg622      Mg  0.03334341  0.46418996  0.96709173     1.58180
O623        O  0.92811392  0.51673491  0.04235898    -0.80650
O624        O  0.06360853  0.51479886  0.94191202    -0.82340
O625        O  0.45538825  0.99579242  0.01429415    -0.87930
C626        C  0.49408020  0.05379789  0.00387051     0.88100
Mg627      Mg  0.46598425  0.96792845  0.03580692     1.58150
O628        O  0.49255633  0.01490500  0.95675821    -0.87660
O629        O  0.44391628  0.00138039  0.97862867    -0.74990
C630        C  0.57322740  0.94511067  0.00339320     0.93150
O631        O  0.49108289  0.02108311  0.04945136    -0.74810
O632        O  0.56090795  0.94511007  0.02169212    -0.82310
Mg633      Mg  0.45819269  0.02992550  0.02917722     1.57960
C634        C  0.55447637  0.99733935  0.92459522     0.93070
O635        O  0.42424279  0.04189173  0.01338139    -0.80570
H636        H  0.47463843  0.99678844  0.93319544    -0.05920
C637        C  0.54911858  0.00893710  0.99971933     0.88010
O638        O  0.47855435  0.94700044  0.00456604    -0.75090
O639        O  0.47786959  0.04039466  0.99969358    -0.87850
O640        O  0.54241559  0.01516415  0.92952977    -0.80660
C641        C  0.49610468  0.07373753  0.93861860     0.93190
C642        C  0.41748877  0.05250029  0.99537633     0.93040
Mg643      Mg  0.53365971  0.96936531  0.96854943     1.57950
O644        O  0.56715204  0.95599055  0.98519579    -0.80580
O645        O  0.50098854  0.97895629  0.94802801    -0.74820
O646        O  0.47743529  0.06793967  0.94918890    -0.80660
O647        O  0.43754398  0.01962661  0.06022265    -0.82370
O648        O  0.51418926  0.93272836  0.04820640    -0.80690
C649        C  0.48896030  0.99713212  0.94529525     0.87480
O650        O  0.51372295  0.95933808  0.99788555    -0.87830
O651        O  0.53653051  0.00360211  0.98321514    -0.87940
O652        O  0.54820307  0.99811439  0.01880257    -0.75000
Mg653      Mg  0.46235026  0.03432759  0.96617003     1.57970
O654        O  0.51444754  0.06156953  0.93977216    -0.82370
H655        H  0.43171341  0.97549336  0.99902283    -0.06100
O656        O  0.49912985  0.98514066  0.04056922    -0.87640
H657        H  0.51737163  0.00301176  0.06407033    -0.05920
H658        H  0.49955908  0.93322435  0.97994587    -0.06100
C659        C  0.50293988  0.00281402  0.05209811     0.87450
C660        C  0.44302422  0.99040650  0.99763124     0.88040
C661        C  0.49764057  0.94579681  0.99373971     0.88080
H662        H  0.56066085  0.02365084  0.99811097    -0.06080
O663        O  0.51318806  0.05248114  0.99306314    -0.75100
Mg664      Mg  0.52916596  0.96557205  0.03143831     1.58000
H665        H  0.49225878  0.06634180  0.01770387    -0.06090
C666        C  0.43717275  0.00174220  0.07293141     0.93070
O667        O  0.47729529  0.93872175  0.05799282    -0.82330
C668        C  0.49587108  0.92702377  0.05921424     0.93130
O669        O  0.42979467  0.05360685  0.97699540    -0.82320
Mg670      Mg  0.52572896  0.03164585  0.96171809     1.58180
O671        O  0.44883193  0.98372015  0.06798309    -0.80650
O672        O  0.55469430  0.97951125  0.93743910    -0.82340
O673        O  0.76375155  0.96999862  0.21871294    -0.87930
C674        C  0.76771702  0.03979821  0.20864128     0.88100
Mg675      Mg  0.73211967  0.95078551  0.21855511     1.58150
O676        O  0.78045676  0.02229975  0.26570432    -0.87660
O677        O  0.79501909  0.97629389  0.23955346    -0.74990
C678        C  0.67179416  0.00409610  0.29672527     0.93150
O679        O  0.72937677  0.00269796  0.18998314    -0.74810
O680        O  0.66993767  0.98898229  0.28090076    -0.82310
Mg681      Mg  0.76828722  0.99313203  0.19047863     1.57960
C682        C  0.74651176  0.05811290  0.31867492     0.93070
O683        O  0.80599503  0.98195490  0.18761662    -0.80570
H684        H  0.80024344  0.00599853  0.28896674    -0.05920
C685        C  0.71250932  0.04111083  0.25382378     0.88010
O686        O  0.73393829  0.94933107  0.25874073    -0.75090
O687        O  0.77472146  0.02052370  0.21445937    -0.87850
O688        O  0.76141023  0.06017420  0.30249294    -0.80660
C689        C  0.81299681  0.07182587  0.24863647     0.93190
C690        C  0.82405760  0.99416642  0.19007946     0.93040
Mg691      Mg  0.72646388  0.01210850  0.29374527     1.57950
O692        O  0.68767457  0.01935151  0.29596694    -0.80580
O693        O  0.76569574  0.00500656  0.29598442    -0.74820
O694        O  0.81573038  0.05374965  0.23613829    -0.80660
O695        O  0.76238397  0.96548277  0.16448458    -0.82370
O696        O  0.68260734  0.94836091  0.24923079    -0.80690
C697        C  0.78298936  0.01112356  0.28375399     0.87480
O698        O  0.72188789  0.98336025  0.26985136    -0.87830
O699        O  0.72989189  0.03430372  0.26433289    -0.87940
O700        O  0.69696254  0.02699614  0.24680192    -0.75000
Mg701      Mg  0.80320529  0.01542072  0.23728304     1.57970
O702        O  0.79543520  0.07447112  0.26179632    -0.82370
H703        H  0.78069063  0.94444573  0.23474261    -0.06100
O704        O  0.71368014  0.98309039  0.21854394    -0.87640
H705        H  0.69491869  0.00322762  0.19754727    -0.05920
H706        H  0.73162057  0.95913051  0.29258950    -0.06100
C707        C  0.71182177  0.99640307  0.20185822     0.87450
C708        C  0.77980656  0.96274860  0.23093467     0.88040
C709        C  0.72923419  0.96389013  0.27463762     0.88080
H710        H  0.71044167  0.05942298  0.25057423    -0.06080
O711        O  0.76110338  0.05443277  0.22361604    -0.75100
Mg712      Mg  0.69189705  0.98703536  0.24841173     1.58000
H713        H  0.76662983  0.04404154  0.19043339    -0.06090
C714        C  0.74613779  0.95089978  0.16254821     0.93070
O715        O  0.69853852  0.92991165  0.21939187    -0.82330
C716        C  0.68366074  0.93099360  0.23562093     0.93130
O717        O  0.82622574  0.00879084  0.20644886    -0.82320
Mg718      Mg  0.76153404  0.05428153  0.26328136     1.58180
O719        O  0.73112678  0.94781261  0.17853083    -0.80650
O720        O  0.73064804  0.04279311  0.31812209    -0.82340
O721        O  0.01658045  0.96166922  0.49656001    -0.87930
C722        C  0.00747200  0.99988547  0.55502869     0.88100
Mg723      Mg  0.03728071  0.97329212  0.46832322     1.58150
O724        O  0.95910040  0.99901855  0.51769113    -0.87660
O725        O  0.98067836  0.95072253  0.50214235    -0.74990
C726        C  0.00212369  0.08105529  0.44831143     0.93150
O727        O  0.05244956  0.99716892  0.52084632    -0.74810
O728        O  0.02055083  0.06885788  0.44737330    -0.82310
Mg729      Mg  0.03218465  0.96429211  0.53044466     1.57960
C730        C  0.92569486  0.06082610  0.50322683     0.93070
O731        O  0.01630823  0.93061216  0.54426251    -0.80570
H732        H  0.93482905  0.98116647  0.50046156    -0.05920
C733        C  0.00158021  0.05551288  0.51183188     0.88010
O734        O  0.00531480  0.98609143  0.44861447    -0.75090
O735        O  0.00299706  0.98399583  0.54137184    -0.87850
O736        O  0.93086351  0.04922654  0.52130062    -0.80660
C737        C  0.94346231  0.99915710  0.57724720     0.93190
C738        C  0.99796058  0.92457449  0.55500075     0.93040
Mg739      Mg  0.96913720  0.04051893  0.47305869     1.57950
O740        O  0.98435650  0.07469589  0.45978316    -0.80580
O741        O  0.94909631  0.00758294  0.48222416    -0.74820
O742        O  0.95410259  0.98141861  0.56977858    -0.80660
O743        O  0.06292451  0.94355561  0.51902678    -0.82370
O744        O  0.04920164  0.02243447  0.43243627    -0.80690
C745        C  0.94692349  0.99552747  0.50042125     0.87480
O746        O  0.99854750  0.02106833  0.46135799    -0.87830
O747        O  0.98458139  0.04333640  0.50698542    -0.87940
O748        O  0.02020304  0.05465833  0.50008416    -0.75000
Mg749      Mg  0.96927363  0.96851073  0.53570593     1.57970
O750        O  0.94352079  0.01837483  0.56638013    -0.82370
H751        H  0.00081376  0.93859235  0.47598005    -0.06100
O752        O  0.04236680  0.00627804  0.48550857    -0.87640
H753        H  0.06652613  0.02400763  0.50303268    -0.05920
H754        H  0.98000489  0.00673517  0.43577154    -0.06100
C755        C  0.05446066  0.00962365  0.50287036     0.87450
C756        C  0.99967918  0.94962894  0.49111275     0.88040
C757        C  0.99419388  0.00498396  0.44789194     0.88080
H758        H  0.00081961  0.06667869  0.52689288    -0.06080
O759        O  0.99633646  0.01877041  0.55472445    -0.75100
Mg760      Mg  0.03223401  0.03668457  0.46658879     1.58000
H761        H  0.02182764  0.99798813  0.56692747    -0.06090
C762        C  0.07525471  0.94358847  0.50076944     0.93070
O763        O  0.05853840  0.98553101  0.43868768    -0.82330
C764        C  0.05987551  0.00388500  0.42665766     0.93130
O765        O  0.97966552  0.93672916  0.55467647    -0.82320
Mg766      Mg  0.96405487  0.03160949  0.53574629     1.58180
O767        O  0.06999330  0.95573404  0.48312183    -0.80650
O768        O  0.93832807  0.06052845  0.48516001    -0.82340
C769        C  0.59987056  0.77136870  0.86784639     0.03540
C770        C  0.58102203  0.77145305  0.85239678    -0.12610
C771        C  0.57240270  0.75087240  0.84285385     0.01040
C772        C  0.58242433  0.72985543  0.84944233    -0.11130
C773        C  0.60165372  0.72932097  0.86443783     0.03530
C774        C  0.61037455  0.75018423  0.87377544    -0.10550
H775        H  0.57376267  0.78784653  0.84687738     0.09130
H776        H  0.57622047  0.71383777  0.84172947     0.06660
H777        H  0.62543289  0.74999055  0.88500779     0.06510
C778        C  0.62053845  0.84691128  0.72763775     0.03540
C779        C  0.61206096  0.82407934  0.72923591    -0.12610
C780        C  0.60060257  0.81693598  0.74905692     0.01040
C781        C  0.60493726  0.82859001  0.76973788    -0.11130
C782        C  0.61660867  0.85006228  0.76982686     0.03530
C783        C  0.62371725  0.85980562  0.74838861    -0.10550
H784        H  0.60998125  0.81362145  0.71371915     0.09130
H785        H  0.59714236  0.82208317  0.78555422     0.06660
H786        H  0.62991667  0.87751511  0.74776668     0.06510
C787        C  0.47766638  0.63228905  0.85254759     0.03540
C788        C  0.47690436  0.64834076  0.83414267    -0.12610
C789        C  0.49749559  0.65672340  0.82416962     0.01040
C790        C  0.51867525  0.64843199  0.83244272    -0.11130
C791        C  0.51987788  0.63224422  0.85047578     0.03530
C792        C  0.49921387  0.62428887  0.86077263    -0.10550
H793        H  0.46031108  0.65493473  0.82831169     0.09130
H794        H  0.53466424  0.65520725  0.82517100     0.06660
H795        H  0.49985147  0.61205604  0.87495778     0.06510
C796        C  0.38082245  0.65186530  0.76785330     0.03540
C797        C  0.39186641  0.67306717  0.76282889    -0.12610
C798        C  0.40399386  0.67615367  0.74220729     0.01040
C799        C  0.39917232  0.66133281  0.72357024    -0.11130
C800        C  0.38387446  0.64243530  0.72649689     0.03530
C801        C  0.37580237  0.63691350  0.74895878    -0.10550
H802        H  0.39371044  0.68635311  0.77595904     0.09130
H803        H  0.40767427  0.66408586  0.70704133     0.06660
H804        H  0.36658196  0.62079918  0.75142315     0.06510
C805        C  0.47714206  0.87180541  0.64955172     0.03540
C806        C  0.47920067  0.85458079  0.66655893    -0.12610
C807        C  0.50097425  0.84584613  0.67312752     0.01040
C808        C  0.52100252  0.85561726  0.66335577    -0.11130
C809        C  0.51936222  0.87292459  0.64626583     0.03530
C810        C  0.49738466  0.88078917  0.63915166    -0.10550
H811        H  0.46354073  0.84688463  0.67363178     0.09130
H812        H  0.53789234  0.84874847  0.66787956     0.06660
H813        H  0.49602904  0.89329815  0.62526026     0.06510
C814        C  0.40209947  0.76804088  0.62961955     0.03540
C815        C  0.42436730  0.76769413  0.63960062    -0.12610
C816        C  0.43501892  0.74678387  0.64519849     0.01040
C817        C  0.42547772  0.72631822  0.63666637    -0.11130
C818        C  0.40242479  0.72570864  0.62866860     0.03530
C819        C  0.39082967  0.74683273  0.62442406    -0.10550
H820        H  0.43214805  0.78378661  0.64551969     0.09130
H821        H  0.43444461  0.71021269  0.64017176     0.06660
H822        H  0.37285491  0.74676919  0.61894201     0.06510
C823        C  0.38259171  0.86457387  0.62333722     0.00980
C824        C  0.36269025  0.87759855  0.62220697     0.00980
C825        C  0.38259503  0.62467951  0.86529644     0.00980
C826        C  0.36462175  0.62341472  0.88070477     0.00980
C827        C  0.63364220  0.85977802  0.47609499     0.03540
C828        C  0.64770459  0.84001144  0.47449781    -0.12610
C829        C  0.65619926  0.82945150  0.49438121     0.01040
C830        C  0.64979019  0.83798338  0.51602119    -0.11130
C831        C  0.63434704  0.85665048  0.51830890     0.03530
C832        C  0.62650437  0.86797096  0.49807491    -0.10550
H833        H  0.65346432  0.83391537  0.45764186     0.09130
H834        H  0.65733120  0.83014814  0.53132005     0.06660
H835        H  0.61534287  0.88297305  0.49935230     0.06510
C836        C  0.84728677  0.77099318  0.62174428     0.03540
C837        C  0.82726950  0.77403003  0.60817042    -0.12610
C838        C  0.81470881  0.75484777  0.60028561     0.01040
C839        C  0.82093198  0.73288611  0.60783103    -0.11130
C840        C  0.84243652  0.72883515  0.61876492     0.03530
C841        C  0.85554279  0.74838457  0.62606186    -0.10550
H842        H  0.82240917  0.79126082  0.60254951     0.09130
H843        H  0.80947830  0.71874732  0.60318244     0.06660
H844        H  0.87228117  0.74637801  0.63423024     0.06510
C845        C  0.72759361  0.86628017  0.60400793     0.03540
C846        C  0.72575216  0.85449212  0.58278326    -0.12610
C847        C  0.74519596  0.85133119  0.56882798     0.01040
C848        C  0.76603361  0.86152891  0.57504191    -0.11130
C849        C  0.76972224  0.86975329  0.59776828     0.03530
C850        C  0.74987621  0.87311100  0.61210806    -0.10550
H851        H  0.70927471  0.84699161  0.57753271     0.09130
H852        H  0.78010347  0.86037712  0.56266148     0.06660
H853        H  0.75157959  0.87994966  0.62948652     0.06510
C854        C  0.86222561  0.65164145  0.47964454     0.03540
C855        C  0.84570764  0.66915535  0.48315858    -0.12610
C856        C  0.83970418  0.67668603  0.50535826     0.01040
C857        C  0.84997822  0.66613332  0.52459309    -0.11130
C858        C  0.86575855  0.64776246  0.52157533     0.03530
C859        C  0.87206528  0.64065423  0.49907023    -0.10550
H860        H  0.83707037  0.67687518  0.46839172     0.09130
H861        H  0.84488117  0.67139035  0.54192171     0.06660
H862        H  0.88453294  0.62683487  0.49678180     0.06510
C863        C  0.72509144  0.63339147  0.40170435     0.03540
C864        C  0.72577397  0.64764308  0.42149124    -0.12610
C865        C  0.74688042  0.65556002  0.43047237     0.01040
C866        C  0.76761787  0.64897920  0.41973586    -0.11130
C867        C  0.76742564  0.63552893  0.39939985     0.03530
C868        C  0.74608696  0.62751115  0.39047423    -0.10550
H869        H  0.70972039  0.65373941  0.42917147     0.09130
H870        H  0.78394531  0.65585765  0.42616601     0.06660
H871        H  0.74575864  0.61755889  0.37452596     0.06510
C872        C  0.65057311  0.77512873  0.38043338     0.03540
C873        C  0.66985238  0.77381984  0.39531614    -0.12610
C874        C  0.67897017  0.75259409  0.40211386     0.01040
C875        C  0.66874079  0.73224481  0.39403919    -0.11130
C876        C  0.64825209  0.73282646  0.38083726     0.03530
C877        C  0.63936904  0.75438630  0.37347847    -0.10550
H878        H  0.67745664  0.78954433  0.40235704     0.09130
H879        H  0.67551400  0.71574296  0.39986210     0.06660
H880        H  0.62378729  0.75499225  0.36301648     0.06510
C881        C  0.86285793  0.63028933  0.38258166     0.00980
C882        C  0.88004022  0.63066271  0.36631648     0.00980
C883        C  0.62725053  0.87147091  0.38058542     0.00980
C884        C  0.62841124  0.88809723  0.36390298     0.00980
C885        C  0.85095302  0.62017295  0.76963402     0.03540
C886        C  0.83141702  0.60562059  0.76993064    -0.12610
C887        C  0.82173583  0.59739456  0.74938370     0.01040
C888        C  0.83032203  0.60514075  0.72823115    -0.11130
C889        C  0.84879101  0.62103273  0.72728789     0.03530
C890        C  0.85959479  0.62822495  0.74817533    -0.10550
H891        H  0.82498339  0.59902878  0.78633125     0.09130
H892        H  0.82313795  0.59801336  0.71235041     0.06660
H893        H  0.87481594  0.63927127  0.74769478     0.06510
C894        C  0.72864446  0.60256035  0.86613680     0.03540
C895        C  0.72786492  0.58323581  0.85126776    -0.12610
C896        C  0.74830869  0.57308174  0.84318166     0.01040
C897        C  0.76961939  0.58184684  0.85060847    -0.11130
C898        C  0.77095808  0.60013607  0.86674189     0.03530
C899        C  0.75023790  0.61082469  0.87424076    -0.10550
H900        H  0.71128254  0.57713921  0.84471198     0.09130
H901        H  0.78534048  0.57470565  0.84316860     0.06660
H902        H  0.75089367  0.62563298  0.88579831     0.06510
C903        C  0.63520760  0.47890590  0.85252010     0.03540
C904        C  0.64962086  0.47748009  0.83286351    -0.12610
C905        C  0.65722457  0.49759682  0.82177892     0.01040
C906        C  0.65035052  0.51902700  0.83036100    -0.11130
C907        C  0.63467967  0.52103426  0.84894636     0.03530
C908        C  0.62713252  0.50066366  0.86018271    -0.10550
H909        H  0.65581443  0.46075145  0.82694857     0.09130
H910        H  0.65782088  0.53439120  0.82256113     0.06660
H911        H  0.61538798  0.50160165  0.87480351     0.06510
C912        C  0.65043204  0.38515889  0.77031240     0.03540
C913        C  0.66804162  0.40162566  0.76646858    -0.12610
C914        C  0.67656368  0.40622300  0.74430561     0.01040
C915        C  0.66678958  0.39456124  0.72537393    -0.11130
C916        C  0.64822994  0.37892987  0.72865272     0.03530
C917        C  0.64034782  0.37390005  0.75112680    -0.10550
H918        H  0.67488040  0.41157107  0.78090117     0.09130
H919        H  0.67225896  0.39899003  0.70796081     0.06660
H920        H  0.62622313  0.36171845  0.75346786     0.06510
C921        C  0.87016243  0.47860818  0.64951399     0.03540
C922        C  0.85500900  0.47977886  0.66859176    -0.12610
C923        C  0.84761888  0.50110123  0.67730145     0.01040
C924        C  0.85574000  0.52149357  0.66727581    -0.11130
C925        C  0.86960187  0.52098766  0.64729469     0.03530
C926        C  0.87709598  0.49940990  0.63843868    -0.10550
H927        H  0.84797465  0.46398558  0.67597168     0.09130
H928        H  0.84941256  0.53797857  0.67375578     0.06660
H929        H  0.88745726  0.49876532  0.62278048     0.06510
C930        C  0.72743507  0.40401539  0.62977934     0.03540
C931        C  0.74768646  0.39134767  0.62425962    -0.12610
C932        C  0.76971674  0.40090270  0.62945715     0.01040
C933        C  0.77109979  0.42239163  0.64092229    -0.11130
C934        C  0.75105195  0.43446798  0.64683490     0.03530
C935        C  0.72978141  0.42656300  0.63879286    -0.10550
H936        H  0.74635760  0.37383570  0.61759742     0.09130
H937        H  0.78775864  0.42868925  0.64709182     0.06660
H938        H  0.71451010  0.43677716  0.64273759     0.06510
C939        C  0.86534883  0.38397544  0.62076772     0.00980
C940        C  0.88041192  0.36577321  0.61884354     0.00980
C941        C  0.62414168  0.38473625  0.86649622     0.00980
C942        C  0.62591364  0.36725659  0.88215700     0.00980
C943        C  0.26740787  0.85481625  0.11439768     0.03540
C944        C  0.26826375  0.83395356  0.10175676    -0.12610
C945        C  0.24807052  0.82114792  0.09769099     0.01040
C946        C  0.22783099  0.82761716  0.10892430    -0.11130
C947        C  0.22513854  0.85045123  0.11700784     0.03530
C948        C  0.24550889  0.86375772  0.12108875    -0.10550
H949        H  0.28447515  0.82839722  0.09400128     0.09130
H950        H  0.21314604  0.81592036  0.10795615     0.06660
H951        H  0.24441226  0.88108262  0.12820591     0.06510
C952        C  0.35164187  0.63398353  0.97770736     0.03540
C953        C  0.33228610  0.64874937  0.97891107    -0.12610
C954        C  0.32350913  0.65623631  0.00019065     0.01040
C955        C  0.33295001  0.64732617  0.02048524    -0.11130
C956        C  0.35121662  0.63125985  0.01997392     0.03530
C957        C  0.36097597  0.62482411  0.99840572    -0.10550
H958        H  0.32505615  0.65573933  0.96306569     0.09130
H959        H  0.32644088  0.65349775  0.03702503     0.06660
H960        H  0.37577178  0.61331890  0.99776471     0.06510
C961        C  0.26995355  0.64986304  0.87918754     0.03540
C962        C  0.27020549  0.66833828  0.89503686    -0.12610
C963        C  0.24975998  0.67648819  0.90507808     0.01040
C964        C  0.22858312  0.66638724  0.89875634    -0.11130
C965        C  0.22773297  0.64739993  0.88348678     0.03530
C966        C  0.24856760  0.63916661  0.87350703    -0.10550
H967        H  0.28667097  0.67564794  0.90055504     0.09130
H968        H  0.21267423  0.67256733  0.90665822     0.06660
H969        H  0.24820750  0.62436145  0.86193241     0.06510
C970        C  0.14710879  0.87011580  0.97623624     0.03540
C971        C  0.16504990  0.85380982  0.97769979    -0.12610
C972        C  0.17218738  0.84480252  0.99907752     0.01040
C973        C  0.16153787  0.85292313  0.01942531    -0.11130
C974        C  0.14357351  0.86937590  0.01838293     0.03530
C975        C  0.13636061  0.87795352  0.99674030    -0.10550
H976        H  0.17271081  0.84719619  0.96184431     0.09130
H977        H  0.16661561  0.84591654  0.03607868     0.06660
H978        H  0.12231226  0.89034786  0.99585802     0.06510
C979        C  0.13237542  0.77138316  0.89614358     0.03540
C980        C  0.14727855  0.77070602  0.91544599    -0.12610
C981        C  0.15493328  0.74962335  0.92444667     0.01040
C982        C  0.14651957  0.72907936  0.91488031    -0.11130
C983        C  0.13057544  0.72907121  0.89648757     0.03530
C984        C  0.12371401  0.75042108  0.88675422    -0.10550
H985        H  0.15413533  0.78676842  0.92247996     0.09130
H986        H  0.15313214  0.71275789  0.92131837     0.06660
H987        H  0.11229199  0.75070919  0.87185538     0.06510
C988        C  0.36700274  0.77299067  0.10092317     0.03540
C989        C  0.35075563  0.77253586  0.08282208    -0.12610
C990        C  0.34258911  0.75182856  0.07357033     0.01040
C991        C  0.35082745  0.73101984  0.08247115    -0.11130
C992        C  0.36577864  0.73078446  0.10171396     0.03530
C993        C  0.37420998  0.75189917  0.11090963    -0.10550
H994        H  0.34361647  0.78865125  0.07642600     0.09130
H995        H  0.34406621  0.71479636  0.07570546     0.06660
H996        H  0.38559630  0.75192304  0.12583937     0.06510
C997        C  0.97817301  0.85100101  0.13118168     0.03540
C998        C  0.99726433  0.86334905  0.12160096    -0.12610
C999        C  0.02021834  0.85637709  0.12720781     0.01040
C1000       C  0.02366870  0.83545110  0.13926711    -0.11130
C1001       C  0.00519566  0.82497406  0.15063938     0.03530
C1002       C  0.98323903  0.83430064  0.14804658    -0.10550
H1003       H  0.99453283  0.87872627  0.11131313     0.09130
H1004       H  0.04114981  0.82956699  0.14292405     0.06660
H1005       H  0.97002009  0.82891955  0.16022871     0.06510
C1006       C  0.88019859  0.77141207  0.14430848     0.03540
C1007       C  0.89730772  0.77372862  0.16172826    -0.12610
C1008       C  0.90786291  0.75414065  0.17138476     0.01040
C1009       C  0.90091037  0.73223790  0.16367149    -0.11130
C1010       C  0.88551388  0.72949869  0.14500756     0.03530
C1011       C  0.87471337  0.74920332  0.13559012    -0.10550
H1012       H  0.90266152  0.79083327  0.16744683     0.09130
H1013       H  0.90871344  0.71701513  0.17133170     0.06660
H1014       H  0.86248336  0.74734437  0.12144693     0.06510
C1015       C  0.10711730  0.86895731  0.26752651     0.03540
C1016       C  0.08919307  0.85256300  0.26626917    -0.12610
C1017       C  0.08150888  0.84371977  0.24513293     0.01040
C1018       C  0.09185654  0.85156166  0.22469271    -0.11130
C1019       C  0.11052022  0.86739090  0.22529902     0.03530
C1020       C  0.11809971  0.87631047  0.24689994    -0.10550
H1021       H  0.08157594  0.84605859  0.28217945     0.09130
H1022       H  0.08593434  0.84469424  0.20820348     0.06660
H1023       H  0.13236430  0.88855251  0.24764723     0.06510
C1024       C  0.01763560  0.65470758  0.37093011     0.03540
C1025       C  0.01927652  0.67150189  0.35328927    -0.12610
C1026       C  0.99919703  0.68051597  0.34295853     0.01040
C1027       C  0.97754540  0.67315323  0.35111808    -0.11130
C1028       C  0.97546358  0.65678161  0.36893208     0.03530
C1029       C  0.99566777  0.64719154  0.37860553    -0.10550
H1030       H  0.03621971  0.67642987  0.34672321     0.09130
H1031       H  0.96195381  0.67953107  0.34283036     0.06660
H1032       H  0.99434014  0.63380043  0.39166005     0.06510
C1033       C  0.89733819  0.63404001  0.22791956     0.03540
C1034       C  0.91564613  0.65015852  0.22722731    -0.12610
C1035       C  0.92405359  0.66058874  0.24745277     0.01040
C1036       C  0.91412334  0.65450723  0.26878196    -0.11130
C1037       C  0.89542694  0.63880221  0.26995142     0.03530
C1038       C  0.88703832  0.62847618  0.24939313    -0.10550
H1039       H  0.92281914  0.65527320  0.21062064     0.09130
H1040       H  0.92023832  0.66279888  0.28453632     0.06660
H1041       H  0.87240311  0.61666684  0.25003771     0.06510
C1042       C  0.11568294  0.77068918  0.35089626     0.03540
C1043       C  0.10301173  0.77162577  0.33012131    -0.12610
C1044       C  0.09993146  0.75180660  0.31660393     0.01040
C1045       C  0.11204209  0.73197674  0.32220883    -0.11130
C1046       C  0.12044659  0.72876082  0.34488485     0.03530
C1047       C  0.12338740  0.74883028  0.35902873    -0.10550
H1048       H  0.09452121  0.78757740  0.32509119     0.09130
H1049       H  0.11161588  0.71790848  0.30978498     0.06660
H1050       H  0.13033884  0.74758498  0.37636839     0.06510
C1051       C  0.02011646  0.59981765  0.87678256     0.03540
C1052       C  0.02095312  0.58238113  0.89383724    -0.12610
C1053       C  0.00040690  0.57310977  0.90308222     0.01040
C1054       C  0.97913464  0.58100547  0.89451423    -0.11130
C1055       C  0.97791846  0.59824646  0.87743937     0.03530
C1056       C  0.99858481  0.60776282  0.86862111    -0.10550
H1057       H  0.03758848  0.57702863  0.90073308     0.09130
H1058       H  0.96318248  0.57438359  0.90199157     0.06660
H1059       H  0.99796086  0.62150397  0.85589063     0.06510
C1060       C  0.90126650  0.62105714  0.02061450     0.03540
C1061       C  0.91960558  0.60508737  0.02055608    -0.12610
C1062       C  0.92839792  0.59602527  0.99983762     0.01040
C1063       C  0.91933903  0.60389488  0.97880531    -0.11130
C1064       C  0.90062633  0.61945357  0.97830405     0.03530
C1065       C  0.89148480  0.62806641  0.99932938    -0.10550
H1066       H  0.92616328  0.59864517  0.03692612     0.09130
H1067       H  0.92563045  0.59655114  0.96266305     0.06660
H1068       H  0.87658631  0.63945965  0.99915892     0.06510
C1069       C  0.98002858  0.39811916  0.12206779     0.03540
C1070       C  0.00199662  0.39098678  0.12992258    -0.12610
C1071       C  0.02223486  0.40142162  0.12102288     0.01040
C1072       C  0.02020673  0.41858756  0.10397221    -0.11130
C1073       C  0.99844449  0.42528767  0.09528287     0.03530
C1074       C  0.97837500  0.41530383  0.10484196    -0.10550
H1075       H  0.00333581  0.37723759  0.14258833     0.09130
H1076       H  0.03589505  0.42580375  0.09647294     0.06660
H1077       H  0.96145855  0.42003064  0.09816189     0.06510
C1078       C  0.87975553  0.47874049  0.09700015     0.03540
C1079       C  0.88845246  0.48075894  0.07427232    -0.12610
C1080       C  0.89964340  0.50087573  0.06736240     0.01040
C1081       C  0.89527713  0.52129375  0.07941507    -0.11130
C1082       C  0.88312453  0.52091369  0.10055783     0.03530
C1083       C  0.87613776  0.49934210  0.10996204    -0.10550
H1084       H  0.89029507  0.46559235  0.06332708     0.09130
H1085       H  0.90303980  0.53730262  0.07333830     0.06660
H1086       H  0.86952218  0.49863508  0.12750128     0.06510
C1087       C  0.09491047  0.37970384  0.97652577     0.03540
C1088       C  0.07196806  0.38780034  0.97847484    -0.12610
C1089       C  0.06455300  0.39834283  0.99876227     0.01040
C1090       C  0.07655592  0.39394623  0.01922159    -0.11130
C1091       C  0.09811024  0.38260343  0.01877889     0.03530
C1092       C  0.10783812  0.37618499  0.99712709    -0.10550
H1093       H  0.06131672  0.38988955  0.96314548     0.09130
H1094       H  0.07021613  0.40130779  0.03533497     0.06660
H1095       H  0.12559217  0.37016919  0.99632069     0.06510
C1096       C  0.11774033  0.47965851  0.89381837     0.03540
C1097       C  0.10244580  0.47678981  0.91272221    -0.12610
C1098       C  0.09632300  0.49585300  0.92646301     0.01040
C1099       C  0.10732859  0.51696862  0.92237720    -0.11130
C1100       C  0.11813156  0.52148870  0.90099695     0.03530
C1101       C  0.12450255  0.50225440  0.88711341    -0.10550
H1102       H  0.09494712  0.45992303  0.91626696     0.09130
H1103       H  0.10476850  0.53076778  0.93484370     0.06660
H1104       H  0.13402723  0.50467004  0.87112805     0.06510
C1105       C  0.35161419  0.62210269  0.27064731     0.03540
C1106       C  0.33370437  0.60543883  0.27204369    -0.12610
C1107       C  0.32291367  0.59696161  0.25195810     0.01040
C1108       C  0.32985125  0.60579485  0.23050119    -0.11130
C1109       C  0.34725035  0.62285056  0.22862286     0.03530
C1110       C  0.35812843  0.63107431  0.24892817    -0.10550
H1111       H  0.32903860  0.59826429  0.28876445     0.09130
H1112       H  0.32225150  0.59853768  0.21490256     0.06660
H1113       H  0.37189934  0.64384019  0.24785996     0.06510
C1114       C  0.27058620  0.39672276  0.13780813     0.03540
C1115       C  0.26848750  0.41465014  0.15427757    -0.12610
C1116       C  0.24675355  0.42424303  0.15981015     0.01040
C1117       C  0.22699001  0.41582881  0.14827801    -0.11130
C1118       C  0.22872169  0.39823261  0.13132434     0.03530
C1119       C  0.25058172  0.38860589  0.12629951    -0.10550
H1120       H  0.28389290  0.42078566  0.16319509     0.09130
H1121       H  0.21007135  0.42261352  0.15287024     0.06660
H1122       H  0.25198635  0.37476943  0.11364844     0.06510
C1123       C  0.36477284  0.48118813  0.15125318     0.03540
C1124       C  0.34806612  0.48129024  0.16892921    -0.12610
C1125       C  0.33981423  0.50180246  0.17838881     0.01040
C1126       C  0.34801731  0.52283006  0.16962494    -0.11130
C1127       C  0.36356862  0.52325947  0.15080164     0.03530
C1128       C  0.37231411  0.50234704  0.14175689    -0.10550
H1129       H  0.34084877  0.46503617  0.17499783     0.09130
H1130       H  0.34104735  0.53896889  0.17626920     0.06660
H1131       H  0.38422673  0.50253723  0.12722398     0.06510
C1132       C  0.14560560  0.37951751  0.27143361     0.03540
C1133       C  0.16226430  0.39721881  0.27397586    -0.12610
C1134       C  0.16988406  0.40964302  0.25483337     0.01040
C1135       C  0.16005999  0.40510471  0.23336509    -0.11130
C1136       C  0.14633263  0.38539982  0.22934299     0.03530
C1137       C  0.13795771  0.37303957  0.24885824    -0.10550
H1138       H  0.16859033  0.40197670  0.29104701     0.09130
H1139       H  0.16408728  0.41672490  0.21918112     0.06660
H1140       H  0.12608312  0.35863653  0.24663013     0.06510
C1141       C  0.13010813  0.47910374  0.35479155     0.03540
C1142       C  0.14508304  0.48090941  0.33560694    -0.12610
C1143       C  0.15380446  0.50229189  0.32854189     0.01040
C1144       C  0.14592159  0.52222782  0.33938226    -0.11130
C1145       C  0.12898225  0.52141407  0.35685412     0.03530
C1146       C  0.12139834  0.49960146  0.36518411    -0.10550
H1147       H  0.15137602  0.46529369  0.32724834     0.09130
H1148       H  0.15316500  0.53878139  0.33417212     0.06660
H1149       H  0.10931422  0.49859558  0.37952930     0.06510
C1150       C  0.26810026  0.60464999  0.37156986     0.03540
C1151       C  0.26800075  0.58258245  0.36123840    -0.12610
C1152       C  0.24789867  0.57374553  0.35124086     0.01040
C1153       C  0.22662240  0.58422233  0.35642990    -0.11130
C1154       C  0.22572593  0.60494963  0.36927844     0.03530
C1155       C  0.24671966  0.61560993  0.37642222    -0.10550
H1156       H  0.28439771  0.57423573  0.35730122     0.09130
H1157       H  0.21076898  0.57721906  0.34904721     0.06660
H1158       H  0.24646979  0.63274561  0.38410854     0.06510
C1159       C  0.39515051  0.61561085  0.47801177     0.03540
C1160       C  0.41398357  0.60022520  0.47848868    -0.12610
C1161       C  0.42428453  0.59384635  0.49948174     0.01040
C1162       C  0.41630002  0.60366610  0.52010801    -0.11130
C1163       C  0.39776207  0.61932657  0.52022995     0.03530
C1164       C  0.38697683  0.62523239  0.49904803    -0.10550
H1165       H  0.41996870  0.59241558  0.46245110     0.09130
H1166       H  0.42378284  0.59811698  0.53641602     0.06660
H1167       H  0.37215330  0.63672277  0.49899293     0.06510
C1168       C  0.60827434  0.38800136  0.47985201     0.03540
C1169       C  0.59044496  0.40446179  0.47959783    -0.12610
C1170       C  0.58140657  0.41355784  0.50002074     0.01040
C1171       C  0.59075122  0.40656300  0.52123360    -0.11130
C1172       C  0.60919739  0.39070741  0.52204885     0.03530
C1173       C  0.61791413  0.38114207  0.50121668    -0.10550
H1174       H  0.58356521  0.41035633  0.46314293     0.09130
H1175       H  0.58405580  0.41387643  0.53722455     0.06660
H1176       H  0.63183584  0.36858984  0.50164708     0.06510
C1177       C  0.61890654  0.52644831  0.39697165     0.03540
C1178       C  0.60954142  0.52721211  0.41946153    -0.12610
C1179       C  0.60077986  0.50730394  0.42977802     0.01040
C1180       C  0.60609292  0.48574684  0.41990388    -0.11130
C1181       C  0.61747149  0.48423405  0.39833056     0.03530
C1182       C  0.62362036  0.50480178  0.38659530    -0.10550
H1183       H  0.60548467  0.54386028  0.42723071     0.09130
H1184       H  0.59946794  0.47007952  0.42788877     0.06660
H1185       H  0.63017604  0.50397492  0.36901096     0.06510
C1186       C  0.47699474  0.39519192  0.61202729     0.03540
C1187       C  0.47784783  0.41401674  0.59658058    -0.12610
C1188       C  0.49904725  0.42307379  0.58905964     0.01040
C1189       C  0.51946948  0.41379292  0.59781123    -0.11130
C1190       C  0.51928920  0.39607371  0.61442778     0.03530
C1191       C  0.49785172  0.38643515  0.62140711    -0.10550
H1192       H  0.46184643  0.42094718  0.58961121     0.09130
H1193       H  0.53591268  0.42028707  0.59134799     0.06660
H1194       H  0.49739079  0.37227404  0.63366843     0.06510
C1195       C  0.37838824  0.47570034  0.59614766     0.03540
C1196       C  0.39339662  0.47513916  0.57692908    -0.12610
C1197       C  0.40250423  0.49553821  0.56756336     0.01040
C1198       C  0.39552488  0.51682789  0.57686994    -0.11130
C1199       C  0.38143050  0.51804744  0.59674549     0.03530
C1200       C  0.37261244  0.49729915  0.60629963    -0.10550
H1201       H  0.39922049  0.45858720  0.57020017     0.09130
H1202       H  0.40265687  0.53268541  0.56974640     0.06660
H1203       H  0.36215690  0.49786651  0.62189871     0.06510
C1204       C  0.47756413  0.60672367  0.38196152     0.03540
C1205       C  0.47965618  0.58893450  0.39836007    -0.12610
C1206       C  0.50126163  0.58197366  0.40689678     0.01040
C1207       C  0.52125984  0.59316445  0.39870235    -0.11130
C1208       C  0.51962161  0.61144746  0.38257685     0.03530
C1209       C  0.49772055  0.61811818  0.37412053    -0.10550
H1210       H  0.46405879  0.58102546  0.40529876     0.09130
H1211       H  0.53808849  0.58831786  0.40550553     0.06660
H1212       H  0.49637371  0.63228144  0.36192407     0.06510
C1213       C  0.63464692  0.35702540  0.02104700     0.03540
C1214       C  0.64888988  0.33733296  0.02219978    -0.12610
C1215       C  0.65710997  0.32691638  0.00215394     0.01040
C1216       C  0.65151719  0.33627803  0.98071477    -0.11130
C1217       C  0.63975818  0.35749495  0.97888004     0.03530
C1218       C  0.63075285  0.36772740  0.99933191    -0.10550
H1219       H  0.65375777  0.33011518  0.03883659     0.09130
H1220       H  0.65776282  0.32753091  0.96528236     0.06660
H1221       H  0.62115155  0.38377613  0.99851332     0.06510
C1222       C  0.64290656  0.22972096  0.88794735     0.03540
C1223       C  0.66323552  0.23136223  0.90122725    -0.12610
C1224       C  0.67168006  0.25270981  0.90871889     0.01040
C1225       C  0.66056272  0.27289214  0.90158702    -0.11130
C1226       C  0.64131110  0.27172984  0.88659552     0.03530
C1227       C  0.63210500  0.25005390  0.88007200    -0.10550
H1228       H  0.67170397  0.21568709  0.90712727     0.09130
H1229       H  0.66701023  0.28957158  0.90748609     0.06660
H1230       H  0.61672757  0.24905923  0.86931548     0.06510
C1231       C  0.85676750  0.27254636  0.11448005     0.03540
C1232       C  0.83736372  0.27344677  0.09973474    -0.12610
C1233       C  0.82816656  0.25333509  0.08997701     0.01040
C1234       C  0.83796501  0.23214960  0.09545415    -0.11130
C1235       C  0.85558830  0.23027027  0.11215966     0.03530
C1236       C  0.86554995  0.25076130  0.12140000    -0.10550
H1237       H  0.83022026  0.29008247  0.09480597     0.09130
H1238       H  0.83130660  0.21675197  0.08690614     0.06660
H1239       H  0.87984835  0.24984127  0.13352523     0.06510
C1240       C  0.86099559  0.14483154  0.97904052     0.03540
C1241       C  0.84593663  0.16388330  0.97979122    -0.12610
C1242       C  0.83856891  0.17326445  0.00077246     0.01040
C1243       C  0.84520228  0.16263664  0.02152392    -0.11130
C1244       C  0.85912755  0.14264291  0.02129265     0.03530
C1245       C  0.86739679  0.13392582  0.99993735    -0.10550
H1246       H  0.83994904  0.17165098  0.96378568     0.09130
H1247       H  0.83903783  0.16955219  0.03790049     0.06660
H1248       H  0.87866529  0.11894614  0.99961301     0.06510
C1249       C  0.72839521  0.13691455  0.89449891     0.03540
C1250       C  0.72822234  0.15203447  0.91364182    -0.12610
C1251       C  0.74890108  0.16061211  0.92287909     0.01040
C1252       C  0.76998633  0.15450361  0.91259451    -0.11130
C1253       C  0.77059196  0.14017683  0.89289336     0.03530
C1254       C  0.74967206  0.13110623  0.88393026    -0.10550
H1255       H  0.71185304  0.15728499  0.92129709     0.09130
H1256       H  0.78604079  0.16149132  0.91956410     0.06660
H1257       H  0.74994291  0.11973964  0.86895731     0.06510
C1258       C  0.73092928  0.36793861  0.10327507     0.03540
C1259       C  0.73157525  0.35454650  0.08297503    -0.12610
C1260       C  0.75257205  0.34714089  0.07352715     0.01040
C1261       C  0.77335908  0.35461038  0.08344629    -0.11130
C1262       C  0.77339892  0.36945394  0.10282444     0.03530
C1263       C  0.75199919  0.37578178  0.11314610    -0.10550
H1264       H  0.71543064  0.34840731  0.07543313     0.09130
H1265       H  0.78963473  0.34832674  0.07641450     0.06660
H1266       H  0.75177991  0.38616203  0.12881463     0.06510
C1267       C  0.59935458  0.97924873  0.88032844     0.03540
C1268       C  0.58034623  0.97821846  0.89560078    -0.12610
C1269       C  0.57062990  0.99837097  0.90476587     0.01040
C1270       C  0.57956052  0.01975688  0.89791121    -0.11130
C1271       C  0.59959688  0.02126211  0.88406199     0.03530
C1272       C  0.60939302  0.00086124  0.87491154    -0.10550
H1273       H  0.57370292  0.96151300  0.90110200     0.09130
H1274       H  0.57203704  0.03544603  0.90500475     0.06660
H1275       H  0.62489070  0.00170858  0.86430584     0.06510
C1276       C  0.61490690  0.90160132  0.97881097     0.03540
C1277       C  0.60101954  0.92150070  0.98067032    -0.12610
C1278       C  0.59376999  0.92988720  0.00221078     0.01040
C1279       C  0.60299646  0.92012407  0.02228297    -0.11130
C1280       C  0.61833412  0.90126942  0.02111129     0.03530
C1281       C  0.62386300  0.89154851  0.99923010    -0.10550
H1282       H  0.59400280  0.92919742  0.96506571     0.09130
H1283       H  0.59706264  0.92627149  0.03904440     0.06660
H1284       H  0.63421961  0.87595654  0.99820523     0.06510
C1285       C  0.37709187  0.09610211  0.97448387     0.03540
C1286       C  0.38505640  0.07323870  0.97695194    -0.12610
C1287       C  0.39634140  0.06667135  0.99705037     0.01040
C1288       C  0.39232251  0.07920850  0.01729921    -0.11130
C1289       C  0.38072049  0.10057740  0.01665235     0.03530
C1290       C  0.37386125  0.10962363  0.99486917    -0.10550
H1291       H  0.38616794  0.06177050  0.96211098     0.09130
H1292       H  0.40011535  0.07337648  0.03335677     0.06660
H1293       H  0.36757512  0.12723225  0.99375040     0.06510
C1294       C  0.47749259  0.12173120  0.89755504     0.03540
C1295       C  0.47633669  0.10424080  0.91451827    -0.12610
C1296       C  0.49669958  0.09463288  0.92366873     0.01040
C1297       C  0.51817095  0.10342902  0.91626090    -0.11130
C1298       C  0.51956017  0.12081469  0.89937837     0.03530
C1299       C  0.49913915  0.12984504  0.88981992    -0.10550
H1300       H  0.45956935  0.09735279  0.91961697     0.09130
H1301       H  0.53410242  0.09601439  0.92289292     0.06660
H1302       H  0.50008022  0.14270036  0.87619988     0.06510
C1303       C  0.39253239  0.98049764  0.11595770     0.03540
C1304       C  0.41128531  0.98060688  0.10033402    -0.12610
C1305       C  0.42122533  0.00140614  0.09291017     0.01040
C1306       C  0.41311218  0.02219466  0.10212912    -0.11130
C1307       C  0.39486597  0.02264404  0.11824402     0.03530
C1308       C  0.38430937  0.00165692  0.12509048    -0.10550
H1309       H  0.41726397  0.96439445  0.09293448     0.09130
H1310       H  0.42043202  0.03837715  0.09595100     0.06660
H1311       H  0.36969140  0.00181794  0.13690297     0.06510
C1312       C  0.47565105  0.88231241  0.10238694     0.03540
C1313       C  0.47580390  0.89901919  0.08478314    -0.12610
C1314       C  0.49641703  0.90718472  0.07520828     0.01040
C1315       C  0.51740272  0.89851871  0.08339056    -0.11130
C1316       C  0.51801283  0.88293816  0.10209180     0.03530
C1317       C  0.49696531  0.87451048  0.11153580    -0.10550
H1318       H  0.45950157  0.90622706  0.07886109     0.09130
H1319       H  0.53352384  0.90505378  0.07618374     0.06660
H1320       H  0.49717247  0.86252004  0.12593369     0.06510
C1321       C  0.85986717  0.11182217  0.27130763     0.03540
C1322       C  0.84111068  0.09624211  0.27027240    -0.12610
C1323       C  0.83155116  0.08952306  0.24903326     0.01040
C1324       C  0.84061945  0.09888966  0.22858534    -0.11130
C1325       C  0.85869479  0.11546870  0.22930934     0.03530
C1326       C  0.86847950  0.12174658  0.25078124    -0.10550
H1327       H  0.83427853  0.08885067  0.28615338     0.09130
H1328       H  0.83339425  0.09351298  0.21206267     0.06660
H1329       H  0.88257379  0.13419680  0.25151441     0.06510
C1330       C  0.87009966  0.97643696  0.14675702     0.03540
C1331       C  0.85359588  0.97472609  0.16472289    -0.12610
C1332       C  0.84120031  0.99417772  0.17152307     0.01040
C1333       C  0.84414499  0.01469216  0.15964822    -0.11130
C1334       C  0.86336907  0.01833174  0.14525163     0.03530
C1335       C  0.87583307  0.99862102  0.13756877    -0.10550
H1336       H  0.84961584  0.95814777  0.17259716     0.09130
H1337       H  0.83227703  0.02878347  0.16339497     0.06660
H1338       H  0.88966778  0.00039464  0.12498937     0.06510
C1339       C  0.72481066  0.90220771  0.12718383     0.03540
C1340       C  0.72582615  0.92531799  0.13502907    -0.12610
C1341       C  0.74647074  0.93476966  0.14284774     0.01040
C1342       C  0.76723207  0.92380355  0.13738729    -0.11130
C1343       C  0.76731698  0.90144707  0.12770069     0.03530
C1344       C  0.74589538  0.89029493  0.12295604    -0.10550
H1345       H  0.71008753  0.93506671  0.13818375     0.09130
H1346       H  0.78342135  0.93158910  0.14310016     0.06660
H1347       H  0.74570478  0.87227358  0.11772152     0.06510
C1348       C  0.63522228  0.02573267  0.34649845     0.03540
C1349       C  0.64965582  0.02487381  0.32684509    -0.12610
C1350       C  0.65574299  0.00399115  0.31655102     0.01040
C1351       C  0.64874289  0.98326205  0.32692645    -0.11130
C1352       C  0.63587253  0.98349405  0.34766427     0.03530
C1353       C  0.62849275  0.00477520  0.35715065    -0.10550
H1354       H  0.65644971  0.04071231  0.31937641     0.09130
H1355       H  0.65440396  0.96689284  0.31961779     0.06660
H1356       H  0.61799987  0.00492729  0.37272329     0.06510
C1357       C  0.64007899  0.88262237  0.22464105     0.03540
C1358       C  0.65700820  0.89982772  0.22069678    -0.12610
C1359       C  0.66708247  0.91179929  0.23926789     0.01040
C1360       C  0.66044351  0.90616427  0.26180915    -0.11130
C1361       C  0.64469004  0.88806619  0.26626480     0.03530
C1362       C  0.63414560  0.87647304  0.24747720    -0.10550
H1363       H  0.66175546  0.90441461  0.20313263     0.09130
H1364       H  0.66789167  0.91587302  0.27612076     0.06660
H1365       H  0.62166038  0.86274776  0.25051167     0.06510
C1366       C  0.72872969  0.10346164  0.36278639     0.03540
C1367       C  0.72736011  0.08504076  0.34678058    -0.12610
C1368       C  0.74752312  0.07478558  0.33802965     0.01040
C1369       C  0.76902621  0.08273080  0.34567542    -0.11130
C1370       C  0.77092936  0.09990156  0.36289924     0.03530
C1371       C  0.75057553  0.11063182  0.37122807    -0.10550
H1372       H  0.71058199  0.07962943  0.34014172     0.09130
H1373       H  0.78452060  0.07562321  0.33775122     0.06660
H1374       H  0.75169892  0.12462692  0.38372897     0.06510
C1375       C  0.61211351  0.35865926  0.27054388     0.03540
C1376       C  0.59647690  0.33992567  0.27038899    -0.12610
C1377       C  0.58946997  0.32964402  0.24950628     0.01040
C1378       C  0.59852782  0.33788553  0.22864990    -0.11130
C1379       C  0.61488893  0.35601618  0.22844109     0.03530
C1380       C  0.62150294  0.36662526  0.24947480    -0.10550
H1381       H  0.58914136  0.33384038  0.28659699     0.09130
H1382       H  0.59262208  0.33031705  0.21245421     0.06660
H1383       H  0.63362233  0.38101390  0.24942503     0.06510
C1384       C  0.38073506  0.14634640  0.26861958     0.03540
C1385       C  0.39695173  0.16457670  0.26966107    -0.12610
C1386       C  0.40478611  0.17521367  0.24957733     0.01040
C1387       C  0.39693738  0.16732375  0.22815305    -0.11130
C1388       C  0.38290322  0.14749062  0.22627508     0.03530
C1389       C  0.37419334  0.13714002  0.24675025    -0.10550
H1390       H  0.40339195  0.17065727  0.28627697     0.09130
H1391       H  0.40338679  0.17563338  0.21256535     0.06660
H1392       H  0.36294131  0.12211200  0.24573124     0.06510
C1393       C  0.47837925  0.13714860  0.35333218     0.03540
C1394       C  0.47922987  0.14987943  0.33266476    -0.12610
C1395       C  0.50017466  0.15822502  0.32399753     0.01040
C1396       C  0.52075774  0.15216272  0.33492759    -0.11130
C1397       C  0.52069698  0.13724460  0.35415565     0.03530
C1398       C  0.49931312  0.13019000  0.36393890    -0.10550
H1399       H  0.46317232  0.15499251  0.32432512     0.09130
H1400       H  0.53703158  0.15895792  0.32830182     0.06660
H1401       H  0.49898003  0.11978729  0.37952608     0.06510
C1402       C  0.60184355  0.27506796  0.36332675     0.03540
C1403       C  0.58360911  0.27373623  0.34715614    -0.12610
C1404       C  0.57409050  0.25263522  0.34058087     0.01040
C1405       C  0.58373179  0.23226529  0.34901889    -0.11130
C1406       C  0.60367623  0.23277616  0.36305822     0.03530
C1407       C  0.61239064  0.25432803  0.37094391    -0.10550
H1408       H  0.57654533  0.28936769  0.33958528     0.09130
H1409       H  0.57667613  0.21578091  0.34325359     0.06660
H1410       H  0.62722719  0.25489921  0.38243713     0.06510
C1411       C  0.47902685  0.36762521  0.14204276     0.03540
C1412       C  0.47677400  0.35248527  0.16110662    -0.12610
C1413       C  0.49642667  0.34438084  0.17268152     0.01040
C1414       C  0.51833850  0.35103006  0.16476112    -0.11130
C1415       C  0.52105970  0.36415997  0.14447598     0.03530
C1416       C  0.50124289  0.37301175  0.13335387    -0.10550
H1417       H  0.45968844  0.34735381  0.16713355     0.09130
H1418       H  0.53358019  0.34476575  0.17378005     0.06660
H1419       H  0.50304618  0.38385184  0.11816072     0.06510
C1420       C  0.39284856  0.27249225  0.13871869     0.03540
C1421       C  0.40643411  0.26847983  0.15842976    -0.12610
C1422       C  0.41886103  0.24822134  0.16074383     0.01040
C1423       C  0.41257012  0.22901456  0.14762908    -0.11130
C1424       C  0.39508543  0.23094284  0.13064373     0.03530
C1425       C  0.38590836  0.25310562  0.12529248    -0.10550
H1426       H  0.40957020  0.28224147  0.17089776     0.09130
H1427       H  0.42093216  0.21255489  0.15094519     0.06660
H1428       H  0.37419486  0.25516425  0.11078722     0.06510
C1429       C  0.12721675  0.35586744  0.47733993     0.03540
C1430       C  0.14471374  0.33884662  0.47617982    -0.12610
C1431       C  0.15379470  0.32910301  0.49651101     0.01040
C1432       C  0.14457501  0.33600533  0.51790791    -0.11130
C1433       C  0.12715433  0.35285138  0.51938845     0.03530
C1434       C  0.11858240  0.36299143  0.49901343    -0.10550
H1435       H  0.15188268  0.33398653  0.45948502     0.09130
H1436       H  0.15172297  0.32895186  0.53376869     0.06660
H1437       H  0.10555975  0.37645531  0.50002038     0.06510
C1438       C  0.35499343  0.27126393  0.61615964     0.03540
C1439       C  0.33685217  0.27475070  0.60028732    -0.12610
C1440       C  0.32207855  0.25657001  0.59446275     0.01040
C1441       C  0.32450321  0.23543555  0.60573794    -0.11130
C1442       C  0.34465003  0.22978563  0.61848992     0.03530
C1443       C  0.35943917  0.24870218  0.62458887    -0.10550
H1444       H  0.33460779  0.29145933  0.59207760     0.09130
H1445       H  0.31078373  0.22321505  0.60249502     0.06660
H1446       H  0.37453496  0.24651955  0.63530102     0.06510
C1447       C  0.37151251  0.15613598  0.47571997     0.03540
C1448       C  0.35511494  0.17405267  0.47678127    -0.12610
C1449       C  0.34638701  0.18208140  0.49797048     0.01040
C1450       C  0.35506617  0.17259752  0.51853392    -0.11130
C1451       C  0.37144110  0.15455647  0.51784306     0.03530
C1452       C  0.37957896  0.14622710  0.49641899    -0.10550
H1453       H  0.34806160  0.18089199  0.46079213     0.09130
H1454       H  0.34793214  0.17802678  0.53507327     0.06660
H1455       H  0.39157445  0.13182181  0.49588239     0.06510
C1456       C  0.26974495  0.37039485  0.60053459     0.03540
C1457       C  0.27030839  0.36216538  0.57758979    -0.12610
C1458       C  0.25021981  0.35400909  0.56691337     0.01040
C1459       C  0.22875972  0.35929137  0.57688357    -0.11130
C1460       C  0.22740667  0.36924410  0.59915173     0.03530
C1461       C  0.24809917  0.37459694  0.61122135    -0.10550
H1462       H  0.28692674  0.35833459  0.56961109     0.09130
H1463       H  0.21299777  0.35330384  0.56848988     0.06660
H1464       H  0.24736466  0.38010163  0.62917235     0.06510
C1465       C  0.14865992  0.27035400  0.38058466     0.03540
C1466       C  0.17124190  0.26820250  0.38953050    -0.12610
C1467       C  0.17740939  0.24864239  0.40188984     0.01040
C1468       C  0.16458284  0.22829955  0.39873346    -0.11130
C1469       C  0.14421152  0.22845157  0.38532956     0.03530
C1470       C  0.13545178  0.24986518  0.37721287    -0.10550
H1471       H  0.18258465  0.28318441  0.39063581     0.09130
H1472       H  0.16988581  0.21253845  0.40740112     0.06660
H1473       H  0.11835321  0.25053703  0.36951029     0.06510
C1474       C  0.26994118  0.13407985  0.40009349     0.03540
C1475       C  0.26973052  0.14932533  0.41914811    -0.12610
C1476       C  0.24884453  0.15712271  0.42856302     0.01040
C1477       C  0.22806895  0.14822251  0.41993755    -0.11130
C1478       C  0.22767122  0.13218632  0.40157688     0.03530
C1479       C  0.24882281  0.12521025  0.39139503    -0.10550
H1480       H  0.28595780  0.15662978  0.42534149     0.09130
H1481       H  0.21186880  0.15490116  0.42675100     0.06660
H1482       H  0.24884510  0.11370718  0.37653110     0.06510
C1483       C  0.01881852  0.36886833  0.64842411     0.03540
C1484       C  0.01918796  0.35805267  0.67021495    -0.12610
C1485       C  0.99858251  0.35238778  0.68154129     0.01040
C1486       C  0.97767995  0.36005798  0.67250153    -0.11130
C1487       C  0.97645559  0.36894845  0.64986655     0.03530
C1488       C  0.99728811  0.37408947  0.63795409    -0.10550
H1489       H  0.03553669  0.35203304  0.67727839     0.09130
H1490       H  0.96189092  0.35609890  0.68196310     0.06660
H1491       H  0.99677639  0.38044848  0.62031956     0.06510
C1492       C  0.89521831  0.23083657  0.63426426     0.03540
C1493       C  0.91329709  0.23434396  0.65026041    -0.12610
C1494       C  0.92061983  0.25661365  0.65649132     0.01040
C1495       C  0.90960760  0.27576685  0.64662323    -0.11130
C1496       C  0.89097436  0.27275028  0.63109595     0.03530
C1497       C  0.88387329  0.25022863  0.62476879    -0.10550
H1498       H  0.92139123  0.21954103  0.65845440     0.09130
H1499       H  0.91469269  0.29306896  0.65194791     0.06660
H1500       H  0.86962482  0.24785924  0.61274396     0.06510
C1501       C  0.11655716  0.35197934  0.77008487     0.03540
C1502       C  0.10197710  0.33246564  0.77064217    -0.12610
C1503       C  0.09331301  0.32276383  0.75025773     0.01040
C1504       C  0.10078537  0.33141964  0.72893479    -0.11130
C1505       C  0.11672640  0.34991327  0.72781121     0.03530
C1506       C  0.12436818  0.36051989  0.74857117    -0.10550
H1507       H  0.09568359  0.32608608  0.78717641     0.09130
H1508       H  0.09350483  0.32426231  0.71311671     0.06660
H1509       H  0.13564317  0.37555702  0.74797540     0.06510
C1510       C  0.09660694  0.27378570  0.86837240     0.03540
C1511       C  0.07680519  0.27342311  0.85411764    -0.12610
C1512       C  0.06695699  0.25254280  0.84683581     0.01040
C1513       C  0.07666313  0.23173373  0.85406065    -0.11130
C1514       C  0.09763388  0.23134780  0.86644337     0.03530
C1515       C  0.10750910  0.25252402  0.87403081    -0.10550
H1516       H  0.06960654  0.28951824  0.84772456     0.09130
H1517       H  0.06920550  0.21559712  0.84780746     0.06660
H1518       H  0.12378250  0.25251105  0.88341451     0.06510
C1519       C  0.97667828  0.13111629  0.85079396     0.03540
C1520       C  0.99891132  0.12406832  0.85757033    -0.12610
C1521       C  0.01855608  0.13350928  0.84665127     0.01040
C1522       C  0.01575181  0.15027713  0.82924170    -0.11130
C1523       C  0.99360152  0.15742894  0.82234594     0.03530
C1524       C  0.97409762  0.14748014  0.83294280    -0.10550
H1525       H  0.00091243  0.11170620  0.87152069     0.09130
H1526       H  0.03092614  0.15835794  0.82156207     0.06660
H1527       H  0.95690350  0.15348004  0.82833953     0.06510
C1528       C  0.87999067  0.15365360  0.77125626     0.03540
C1529       C  0.88820709  0.17650130  0.76903815    -0.12610
C1530       C  0.89711033  0.18435899  0.74813034     0.01040
C1531       C  0.89337413  0.17134477  0.72803965    -0.11130
C1532       C  0.88245629  0.14956187  0.72917781     0.03530
C1533       C  0.87614511  0.14038379  0.75098588    -0.10550
H1534       H  0.89081564  0.18716333  0.78433415     0.09130
H1535       H  0.90031572  0.17745599  0.71166734     0.06660
H1536       H  0.86972113  0.12277862  0.75220841     0.06510
C1537       C  0.26996279  0.11620011  0.85268080     0.03540
C1538       C  0.26848789  0.10176925  0.83307894    -0.12610
C1539       C  0.24698932  0.09545200  0.82367302     0.01040
C1540       C  0.22682748  0.10458507  0.83325493    -0.11130
C1541       C  0.22775720  0.11990195  0.85216535     0.03530
C1542       C  0.24940926  0.12560422  0.86214740    -0.10550
H1543       H  0.28423113  0.09452952  0.82577645     0.09130
H1544       H  0.21013309  0.09924985  0.82633146     0.06660
H1545       H  0.25021905  0.13691432  0.87714164     0.06510
C1546       C  0.35369977  0.97780393  0.63380096     0.03540
C1547       C  0.34025612  0.98059359  0.65394099    -0.12610
C1548       C  0.33208504  0.00211493  0.66085827     0.01040
C1549       C  0.34069210  0.02178736  0.65009393    -0.11130
C1550       C  0.35583347  0.02014904  0.63102892     0.03530
C1551       C  0.36223754  0.99793254  0.62250267    -0.10550
H1552       H  0.33513592  0.96552840  0.66390619     0.09130
H1553       H  0.33526785  0.03864547  0.65639288     0.06660
H1554       H  0.37280765  0.99640607  0.60705593     0.06510
C1555       C  0.27209275  0.87696112  0.64993884     0.03540
C1556       C  0.27572763  0.89363481  0.66761444    -0.12610
C1557       C  0.25785752  0.90838696  0.67420735     0.01040
C1558       C  0.23720200  0.90770675  0.66189182    -0.11130
C1559       C  0.23113737  0.88883678  0.64774214     0.03530
C1560       C  0.24934757  0.87374105  0.64090970    -0.10550
H1561       H  0.29266251  0.89594640  0.67546020     0.09130
H1562       H  0.22582031  0.92241865  0.66369488     0.06660
H1563       H  0.24621143  0.85984735  0.62869510     0.06510
C1564       C  0.14959328  0.97991509  0.86643603     0.03540
C1565       C  0.17247984  0.98155308  0.85804236    -0.12610
C1566       C  0.17972402  0.00119730  0.84647944     0.01040
C1567       C  0.16778346  0.02186240  0.85016573    -0.11130
C1568       C  0.14643238  0.02207806  0.86203841     0.03530
C1569       C  0.13671892  0.00067384  0.86945907    -0.10550
H1570       H  0.18320497  0.96621611  0.85658435     0.09130
H1571       H  0.17428092  0.03763241  0.84228953     0.06660
H1572       H  0.11912057  0.00010391  0.87601197     0.06510
C1573       C  0.13396430  0.89326106  0.76898312     0.03540
C1574       C  0.15112193  0.91076725  0.76939247    -0.12610
C1575       C  0.15990228  0.92019714  0.74864127     0.01040
C1576       C  0.15073688  0.91209383  0.72747534    -0.11130
C1577       C  0.13344303  0.89478540  0.72692161     0.03530
C1578       C  0.12523761  0.88530545  0.74771986    -0.10550
H1579       H  0.15804295  0.91652390  0.78590903     0.09130
H1580       H  0.15739041  0.91886759  0.71126353     0.06660
H1581       H  0.11217653  0.87175450  0.74735666     0.06510
C1582       C  0.36540519  0.11109544  0.76820287     0.03540
C1583       C  0.34905245  0.09309585  0.76941719    -0.12610
C1584       C  0.34032736  0.08265313  0.74954496     0.01040
C1585       C  0.34719188  0.09097693  0.72787421    -0.11130
C1586       C  0.36248900  0.10985995  0.72600027     0.03530
C1587       C  0.37198205  0.11987832  0.74631707    -0.10550
H1588       H  0.34306813  0.08707585  0.78619245     0.09130
H1589       H  0.33998369  0.08327459  0.71227601     0.06660
H1590       H  0.38412772  0.13418101  0.74511577     0.06510
C1591       C  0.02062545  0.88207506  0.59864379     0.03540
C1592       C  0.01970646  0.89634371  0.57898320    -0.12610
C1593       C  0.99856569  0.90426101  0.57040679     0.01040
C1594       C  0.97804917  0.89597305  0.58017298    -0.11130
C1595       C  0.97820847  0.88054018  0.59895550     0.03530
C1596       C  0.99974043  0.87380575  0.60857102    -0.10550
H1597       H  0.03573316  0.90297968  0.57165168     0.09130
H1598       H  0.96164804  0.90259025  0.57384469     0.06660
H1599       H  0.00024162  0.86287488  0.62378176     0.06510
C1600       C  0.90179947  0.02004589  0.62042104     0.03540
C1601       C  0.92395266  0.01669466  0.61075858    -0.12610
C1602       C  0.92867520  0.99697157  0.59792513     0.01040
C1603       C  0.91506904  0.97724751  0.60132080    -0.11130
C1604       C  0.89524325  0.97817742  0.61550903     0.03530
C1605       C  0.88773115  0.00006092  0.62408308    -0.10550
H1606       H  0.93627440  0.03086894  0.60973257     0.09130
H1607       H  0.91943649  0.96132909  0.59231569     0.06660
H1608       H  0.87097943  0.00144873  0.63242659     0.06510
C1609       C  0.09871103  0.97905384  0.37997812     0.03540
C1610       C  0.08172848  0.98143002  0.39727928    -0.12610
C1611       C  0.07509093  0.00308083  0.40591214     0.01040
C1612       C  0.08551829  0.02294684  0.39668205    -0.11130
C1613       C  0.10288318  0.02107680  0.37950874     0.03530
C1614       C  0.10934343  0.99912703  0.37101574    -0.10550
H1615       H  0.07432788  0.96600646  0.40501622     0.09130
H1616       H  0.08112427  0.03981379  0.40370150     0.06660
H1617       H  0.12286087  0.99773391  0.35803829     0.06510
C1618       C  0.11644602  0.89828725  0.47753823     0.03540
C1619       C  0.10116958  0.91720867  0.47835888    -0.12610
C1620       C  0.09509601  0.92748804  0.49951560     0.01040
C1621       C  0.10528355  0.91938528  0.51992355    -0.11130
C1622       C  0.12086810  0.90072695  0.51964813     0.03530
C1623       C  0.12646138  0.89010233  0.49826557    -0.10550
H1624       H  0.09297079  0.92304923  0.46250994     0.09130
H1625       H  0.09997423  0.92678619  0.53638665     0.06660
H1626       H  0.13788370  0.87524173  0.49783365     0.06510
C1627       C  0.97895939  0.11964716  0.40162761     0.03540
C1628       C  0.97934156  0.10691943  0.42241434    -0.12610
C1629       C  0.00038822  0.10172185  0.43331879     0.01040
C1630       C  0.02065691  0.11177080  0.42489936    -0.11130
C1631       C  0.02117144  0.12168855  0.40267985     0.03530
C1632       C  0.00009102  0.12654600  0.39133417    -0.10550
H1633       H  0.96336099  0.09935758  0.42890104     0.09130
H1634       H  0.03688653  0.10798380  0.43361796     0.06660
H1635       H  0.00017941  0.13378680  0.37403288     0.06510
C1636       C  0.87949823  0.10094103  0.48033604     0.03540
C1637       C  0.89654539  0.08371957  0.48172960    -0.12610
C1638       C  0.90510491  0.07610240  0.50302601     0.01040
C1639       C  0.89588177  0.08556862  0.52342964    -0.11130
C1640       C  0.87891743  0.10307177  0.52241262     0.03530
C1641       C  0.87080002  0.11088972  0.50082311    -0.10550
H1642       H  0.90390755  0.07679512  0.46586098     0.09130
H1643       H  0.90268756  0.08026199  0.54010461     0.06660
H1644       H  0.85804189  0.12460622  0.50000515     0.06510
C1645       C  0.13267444  0.13220872  0.37426066     0.00980
C1646       C  0.11653676  0.11494935  0.37118120     0.00980
C1647       C  0.13178058  0.87485398  0.63277167     0.00980
C1648       C  0.11795648  0.87387129  0.61357581     0.00980
C1649       C  0.87480893  0.13365891  0.63404925     0.00980
C1650       C  0.87336740  0.11698696  0.61734102     0.00980
C1651       C  0.11431506  0.13449051  0.86871256     0.00980
C1652       C  0.13217402  0.11906661  0.87019393     0.00980
C1653       C  0.37292651  0.13320281  0.61241582     0.00980
C1654       C  0.37417677  0.11564566  0.62814946     0.00980
C1655       C  0.38298338  0.13178207  0.88032341     0.00980
C1656       C  0.36651451  0.13305846  0.86335173     0.00980
C1657       C  0.12765920  0.38593741  0.88104056     0.00980
C1658       C  0.12783922  0.36788744  0.86564463     0.00980
C1659       C  0.13030169  0.37481428  0.61468153     0.00980
C1660       C  0.11519285  0.37486628  0.63281979     0.00980
C1661       C  0.36540414  0.36408215  0.62990140     0.00980
C1662       C  0.38048762  0.38235197  0.62734557     0.00980
C1663       C  0.38102609  0.12525198  0.36352739     0.00980
C1664       C  0.36616607  0.12783769  0.38177505     0.00980
C1665       C  0.11744977  0.38138588  0.36454166     0.00980
C1666       C  0.11793415  0.36657408  0.38299330     0.00980
C1667       C  0.63407935  0.12077269  0.37401428     0.00980
C1668       C  0.61695687  0.13710103  0.37510679     0.00980
C1669       C  0.37575409  0.13657638  0.12800885     0.00980
C1670       C  0.37627200  0.11815464  0.11311831     0.00980
C1671       C  0.63375623  0.37873973  0.11577492     0.00980
C1672       C  0.61841975  0.37801619  0.13374290     0.00980
C1673       C  0.62450654  0.38749743  0.38359761     0.00980
C1674       C  0.62399553  0.37141376  0.36621299     0.00980
C1675       C  0.36682088  0.38668298  0.12342447     0.00980
C1676       C  0.38548402  0.37203632  0.12233912     0.00980
C1677       C  0.87543328  0.13299726  0.11626792     0.00980
C1678       C  0.87576431  0.11874435  0.13529797     0.00980
C1679       C  0.63288388  0.13292156  0.87563789     0.00980
C1680       C  0.61472347  0.11780363  0.87612337     0.00980
C1681       C  0.61476838  0.86906758  0.11379004     0.00980
C1682       C  0.62978613  0.86810490  0.13209919     0.00980
C1683       C  0.88561277  0.38418243  0.13180824     0.00980
C1684       C  0.86805014  0.36818772  0.13151748     0.00980
C1685       C  0.36489096  0.63243255  0.36486452     0.00980
C1686       C  0.38141157  0.63011374  0.38191089     0.00980
C1687       C  0.11701102  0.37591486  0.11511842     0.00980
C1688       C  0.13652795  0.37451032  0.12864431     0.00980
C1689       C  0.13134546  0.63446949  0.86887146     0.00980
C1690       C  0.11487723  0.61736709  0.86925854     0.00980
C1691       C  0.87465203  0.61703739  0.11518941     0.00980
C1692       C  0.87349311  0.63217743  0.13336052     0.00980
C1693       C  0.12973209  0.88480661  0.11282689     0.00980
C1694       C  0.11420106  0.88743287  0.13087268     0.00980
C1695       C  0.12853589  0.61676774  0.37968452     0.00980
C1696       C  0.11235118  0.63392246  0.37768181     0.00980
C1697       C  0.12463694  0.86660892  0.36453783     0.00980
C1698       C  0.12346967  0.88325054  0.38135489     0.00980
C1699       C  0.36322597  0.86793824  0.12682317     0.00980
C1700       C  0.38017816  0.88455295  0.12751226     0.00980
C1701       C  0.88279319  0.12341207  0.38485697     0.00980
C1702       C  0.86704943  0.12427389  0.36730068     0.00980
C1703       C  0.37265919  0.63404569  0.11515754     0.00980
C1704       C  0.37168033  0.61928307  0.13354677     0.00980
C1705       C  0.87736186  0.86328586  0.12149683     0.00980
C1706       C  0.86431466  0.88305705  0.12229916     0.00980
C1707       C  0.86634426  0.86521455  0.62719837     0.00980
C1708       C  0.88331019  0.88180452  0.62670015     0.00980
C1709       C  0.86573674  0.62765497  0.86628637     0.00980
C1710       C  0.88381262  0.62606128  0.88150190     0.00980
C1711       C  0.62142442  0.86646741  0.86659242     0.00980
C1712       C  0.62166339  0.88500223  0.88136719     0.00980
C1713       C  0.37187355  0.62966475  0.63360993     0.00980
C1714       C  0.37266961  0.61488920  0.61493266     0.00980
C1715       C  0.86625484  0.12268825  0.88310955     0.00980
C1716       C  0.88367524  0.12199665  0.86703821     0.00980
C1717       C  0.63151574  0.63701755  0.36986744     0.00980
C1718       C  0.61321226  0.62185469  0.36790304     0.00980
C1719       C  0.61616023  0.63336422  0.87232234     0.00980
C1720       C  0.63322756  0.61709388  0.87346484     0.00980
C1721       C  0.61413383  0.87673669  0.63149858     0.00980
C1722       C  0.63176455  0.87664806  0.61557121     0.00980
C1723       C  0.61512217  0.37414935  0.61841688     0.00980
C1724       C  0.63123405  0.37322649  0.63580060     0.00980
C1725       C  0.12093401  0.86786819  0.88127413     0.00980
C1726       C  0.12055635  0.88307770  0.86317443     0.00980
C1727       C  0.87501085  0.63293046  0.61466279     0.00980
C1728       C  0.87581666  0.61725408  0.63233232     0.00980
C1729       C  0.86824741  0.09160982  0.44014127    -0.20890
C1730       C  0.87269378  0.10870230  0.45688329    -0.08940
C1731       C  0.87647820  0.13165934  0.44965237     0.29920
C1732       C  0.87766238  0.13681227  0.42591248    -0.20890
C1733       C  0.87559338  0.11909934  0.40926140    -0.08950
C1734       C  0.87065939  0.09644262  0.41669343     0.29930
F1735       F  0.87094168  0.07833457  0.40175867    -0.19470
H1736       H  0.86562163  0.07376328  0.44534362     0.18290
H1737       H  0.88193652  0.15428032  0.42056366     0.18300
F1738       F  0.88146044  0.14851109  0.46534656    -0.19460
C1739       C  0.85355834  0.10363696  0.55720827    -0.20890
C1740       C  0.87139612  0.11389850  0.54430509    -0.08940
C1741       C  0.88560283  0.13065443  0.55479219     0.29920
C1742       C  0.88387547  0.13487747  0.57860350    -0.20890
C1743       C  0.86813021  0.12218547  0.59235739    -0.08950
C1744       C  0.85174302  0.10793519  0.58102842     0.29930
F1745       F  0.83601839  0.09567802  0.59356673    -0.19470
H1746       H  0.84249581  0.09060885  0.54932937     0.18290
H1747       H  0.89721508  0.14539844  0.58628887     0.18300
F1748       F  0.90317211  0.14061817  0.54264107    -0.19460
C1749       C  0.94418354  0.10190718  0.38355064    -0.20890
C1750       C  0.95639673  0.12207610  0.38965038    -0.08940
C1751       C  0.94489109  0.14348197  0.38903398     0.29920
C1752       C  0.92092071  0.14425779  0.38470561    -0.20890
C1753       C  0.90829918  0.12372649  0.38089126    -0.08950
C1754       C  0.92035955  0.10263379  0.37935574     0.29930
F1755       F  0.90884041  0.08235454  0.37625700    -0.19470
H1756       H  0.95275887  0.08523549  0.38408541     0.18290
H1757       H  0.91188827  0.16061007  0.38630511     0.18300
F1758       F  0.95627641  0.16323132  0.39498386    -0.19460
C1759       C  0.05385575  0.13900334  0.37837950    -0.20890
C1760       C  0.04364544  0.12031549  0.39019061    -0.08940
C1761       C  0.05611559  0.09962291  0.39202682     0.29920
C1762       C  0.07926655  0.09893428  0.38632236    -0.20890
C1763       C  0.09072220  0.11779124  0.37578720    -0.08950
C1764       C  0.07700183  0.13745683  0.37035809     0.29930
F1765       F  0.08518319  0.15467697  0.35671446    -0.19470
H1766       H  0.04408807  0.15474280  0.37559558     0.18290
H1767       H  0.08802393  0.08310190  0.39072522     0.18300
F1768       F  0.04619259  0.08005849  0.40066825    -0.19460
C1769       C  0.14193242  0.88913275  0.44356224    -0.20890
C1770       C  0.12041470  0.88693172  0.45475446    -0.08940
C1771       C  0.10140761  0.87804790  0.44220205     0.29920
C1772       C  0.10335827  0.87368822  0.41840822    -0.20890
C1773       C  0.12421003  0.87824619  0.40666306    -0.08950
C1774       C  0.14382277  0.88490435  0.41964866     0.29930
F1775       F  0.16421568  0.88950910  0.40879880    -0.19470
H1776       H  0.15672851  0.89608721  0.45287091     0.18290
H1777       H  0.08794267  0.86886012  0.40884331     0.18300
F1778       F  0.08037731  0.87559735  0.45256579    -0.19460
C1779       C  0.12130587  0.86203951  0.57204522    -0.20890
C1780       C  0.12668021  0.87811695  0.58961274    -0.08940
C1781       C  0.13492837  0.90015565  0.58326907     0.29920
C1782       C  0.13583644  0.90648718  0.55988277    -0.20890
C1783       C  0.12813974  0.89118746  0.54243391    -0.08950
C1784       C  0.12202118  0.86844072  0.54864283     0.29930
F1785       F  0.11404267  0.85329854  0.53243790    -0.19470
H1786       H  0.11468853  0.84506500  0.57654594     0.18290
H1787       H  0.14046286  0.92415300  0.55552462     0.18300
F1788       F  0.13947638  0.91645777  0.59966708    -0.19460
C1789       C  0.10971012  0.05367236  0.35189517    -0.20890
C1790       C  0.11537096  0.04234391  0.37259415    -0.08940
C1791       C  0.12854271  0.05410636  0.38932235     0.29920
C1792       C  0.13271578  0.07778691  0.38706331    -0.20890
C1793       C  0.12411619  0.09017540  0.36789728    -0.08950
C1794       C  0.11434087  0.07743475  0.34939744     0.29930
F1795       F  0.10575835  0.08869217  0.33066360    -0.19470
H1796       H  0.09952040  0.04480552  0.33880515     0.18290
H1797       H  0.13911147  0.08654403  0.40217897     0.18300
F1798       F  0.13429440  0.04347702  0.40948546    -0.19460
C1799       C  0.13525079  0.92469600  0.37428880    -0.20890
C1800       C  0.11779712  0.90770536  0.37560038    -0.08940
C1801       C  0.09445944  0.91455417  0.37477769     0.29920
C1802       C  0.08872663  0.93780161  0.37254846    -0.20890
C1803       C  0.10592939  0.95509729  0.37363997    -0.08950
C1804       C  0.12942539  0.94831329  0.37369006     0.29930
F1805       F  0.14663864  0.96432779  0.37533463    -0.19470
H1806       H  0.15332929  0.91974979  0.37530675     0.18290
H1807       H  0.07051669  0.94242808  0.37227800     0.18300
F1808       F  0.07706115  0.89897538  0.37794172    -0.19460
C1809       C  0.87572090  0.94193405  0.60163838    -0.20890
C1810       C  0.88327356  0.95579198  0.62032662    -0.08940
C1811       C  0.88589051  0.94538953  0.64215921     0.29920
C1812       C  0.88344865  0.92130257  0.64459031    -0.20890
C1813       C  0.87818981  0.90718132  0.62538804    -0.08950
C1814       C  0.87315075  0.91787117  0.60409677     0.29930
F1815       F  0.86781872  0.90491464  0.58516855    -0.19470
H1816       H  0.87388954  0.94949161  0.58457218     0.18290
H1817       H  0.88752599  0.91344294  0.66111234     0.18300
F1818       F  0.89358797  0.95807270  0.66046705    -0.19460
C1819       C  0.90318249  0.06064629  0.60588124    -0.20890
C1820       C  0.89347861  0.04478878  0.62175765    -0.08940
C1821       C  0.87678237  0.05337788  0.63756747     0.29920
C1822       C  0.87029884  0.07707255  0.63704824    -0.20890
C1823       C  0.88118312  0.09258408  0.62153910    -0.08950
C1824       C  0.89853222  0.08399401  0.60688010     0.29930
F1825       F  0.91089730  0.09814725  0.59273197    -0.19470
H1826       H  0.91472108  0.05524681  0.59211263     0.18290
H1827       H  0.85664980  0.08315794  0.64841385     0.18300
F1828       F  0.86669897  0.03913329  0.65329640    -0.19460
C1829       C  0.05418918  0.85668384  0.61011848    -0.20890
C1830       C  0.04381522  0.87867360  0.60927285    -0.08940
C1831       C  0.05758171  0.89838677  0.61369122     0.29920
C1832       C  0.08151093  0.89637563  0.61602861    -0.20890
C1833       C  0.09219399  0.87462597  0.61569880    -0.08950
C1834       C  0.07830043  0.85463467  0.61352702     0.29930
F1835       F  0.08824232  0.83337227  0.61293410    -0.19470
H1836       H  0.04396582  0.84131813  0.60650743     0.18290
H1837       H  0.09191207  0.91201913  0.61685506     0.18300
F1838       F  0.04807832  0.91989335  0.61353584    -0.19460
C1839       C  0.93746264  0.86841452  0.59271546    -0.20890
C1840       C  0.95516626  0.87385045  0.60857724    -0.08940
C1841       C  0.94904849  0.87842284  0.63180445     0.29920
C1842       C  0.92550671  0.87909384  0.63839312    -0.20890
C1843       C  0.90790767  0.87560846  0.62184613    -0.08950
C1844       C  0.91424212  0.87046129  0.59889529     0.29930
F1845       F  0.89792270  0.86879834  0.58198456    -0.19470
H1846       H  0.94163524  0.86498906  0.57470661     0.18290
H1847       H  0.92100194  0.88383711  0.65599837     0.18300
F1848       F  0.96553872  0.88442158  0.64751274    -0.19460
C1849       C  0.34911051  0.12537740  0.68822140    -0.20890
C1850       C  0.36766123  0.11827937  0.70231173    -0.08940
C1851       C  0.38926782  0.11381327  0.69200020     0.29920
C1852       C  0.39166977  0.11469032  0.66781556    -0.20890
C1853       C  0.37261921  0.12006624  0.65361319    -0.08950
C1854       C  0.35146372  0.12620495  0.66411065     0.29930
F1855       F  0.33254908  0.13120251  0.65108777    -0.19470
H1856       H  0.33220791  0.12852553  0.69583330     0.18290
H1857       H  0.40807868  0.10983605  0.66006465     0.18300
F1858       F  0.40734803  0.10642408  0.70507093    -0.19460
C1859       C  0.37847946  0.10807655  0.83067088    -0.20890
C1860       C  0.37296338  0.13037843  0.83848365    -0.08940
C1861       C  0.36909303  0.14788495  0.82199500     0.29920
C1862       C  0.36940244  0.14251642  0.79815814    -0.20890
C1863       C  0.37430784  0.11983913  0.79068914    -0.08950
C1864       C  0.38088860  0.10328122  0.80722534     0.29930
F1865       F  0.38619198  0.08130018  0.80064572    -0.19470
H1866       H  0.37954806  0.09382013  0.84277895     0.18290
H1867       H  0.36389294  0.15544385  0.78577757     0.18300
F1868       F  0.36307542  0.16951418  0.82890304    -0.19460
C1869       C  0.10565802  0.89278876  0.80158814    -0.20890
C1870       C  0.12540877  0.88340046  0.79103204    -0.08940
C1871       C  0.13880800  0.86727813  0.80327109     0.29920
C1872       C  0.13431720  0.86312798  0.82679415    -0.20890
C1873       C  0.11682166  0.87560496  0.83847242    -0.08950
C1874       C  0.10120204  0.88872338  0.82508979     0.29930
F1875       F  0.08382849  0.90062060  0.83560614    -0.19470
H1876       H  0.09494403  0.90499250  0.79224293     0.18290
H1877       H  0.14702744  0.85338385  0.83634140     0.18300
F1878       F  0.15789911  0.85777565  0.79329464    -0.19460
C1879       C  0.13256395  0.86418490  0.69632588    -0.20890
C1880       C  0.12519055  0.88593547  0.70427896    -0.08940
C1881       C  0.11338619  0.90064904  0.68903588     0.29920
C1882       C  0.11144343  0.89483158  0.66555945    -0.20890
C1883       C  0.12180603  0.87450894  0.65683313    -0.08950
C1884       C  0.13089178  0.85846882  0.67275343     0.29930
F1885       F  0.14126198  0.83884610  0.66497655    -0.19470
H1886       H  0.14168342  0.85261531  0.70790204     0.18290
H1887       H  0.10535556  0.90806682  0.65392793     0.18300
F1888       F  0.10603157  0.92176573  0.69634475    -0.19460
C1889       C  0.14722972  0.94088875  0.84890504    -0.20890
C1890       C  0.13926296  0.95603930  0.86625661    -0.08940
C1891       C  0.12368947  0.94718098  0.88293271     0.29920
C1892       C  0.11717434  0.92347418  0.88227220    -0.20890
C1893       C  0.12725203  0.90821336  0.86588420    -0.08950
C1894       C  0.14318983  0.91746051  0.84995044     0.29930
F1895       F  0.15569380  0.90390904  0.83541194    -0.19470
H1896       H  0.15805817  0.94690909  0.83478280     0.18290
H1897       H  0.10452703  0.91707809  0.89458614     0.18300
F1898       F  0.11510422  0.96110971  0.89983253    -0.19460
C1899       C  0.13040665  0.08295681  0.84639947    -0.20890
C1900       C  0.12840753  0.09345928  0.86824993    -0.08940
C1901       C  0.12754486  0.07921373  0.88801695     0.29920
C1902       C  0.13077263  0.05509618  0.88593040    -0.20890
C1903       C  0.13447151  0.04489620  0.86406813    -0.08950
C1904       C  0.13258605  0.05896228  0.84422609     0.29930
F1905       F  0.13539906  0.04972770  0.82272536    -0.19470
H1906       H  0.13202813  0.09347634  0.83099489     0.18290
H1907       H  0.13235949  0.04474452  0.90147101     0.18300
F1908       F  0.12573282  0.08883377  0.90942585    -0.19460
C1909       C  0.19801709  0.87092578  0.62341347    -0.20890
C1910       C  0.20579873  0.88567863  0.64150275    -0.08940
C1911       C  0.18850700  0.89722761  0.65464118     0.29920
C1912       C  0.16550565  0.89631740  0.64829822    -0.20890
C1913       C  0.15739862  0.88018074  0.63208276    -0.08950
C1914       C  0.17399426  0.86746339  0.61934828     0.29930
F1915       F  0.16716637  0.85103425  0.60392482    -0.19470
H1916       H  0.21028620  0.86131049  0.61301149     0.18290
H1917       H  0.15366153  0.90680869  0.65828944     0.18300
F1918       F  0.19279731  0.90768059  0.67531861    -0.19460
C1919       C  0.34500556  0.05843251  0.61607107    -0.20890
C1920       C  0.36287628  0.04257887  0.62052250    -0.08940
C1921       C  0.38570919  0.05105631  0.62286269     0.29920
C1922       C  0.39000454  0.07512788  0.62279040    -0.20890
C1923       C  0.37149221  0.09089257  0.62115659    -0.08950
C1924       C  0.34892825  0.08213091  0.61804270     0.29930
F1925       F  0.33022873  0.09633303  0.61936573    -0.19470
H1926       H  0.32721066  0.05239489  0.61479297     0.18290
H1927       H  0.40742087  0.08143544  0.62604569     0.18300
F1928       F  0.40330836  0.03633999  0.62786864    -0.19460
C1929       C  0.17256610  0.11924557  0.88642885    -0.20890
C1930       C  0.15693502  0.12661634  0.86924420    -0.08940
C1931       C  0.16588989  0.13642345  0.84881812     0.29920
C1932       C  0.18975540  0.13794531  0.84532835    -0.20890
C1933       C  0.20524372  0.12815858  0.86124570    -0.08950
C1934       C  0.19659570  0.11978456  0.88241203     0.29930
F1935       F  0.21103615  0.10955439  0.89785474    -0.19470
H1936       H  0.16611738  0.11120620  0.90209951     0.18290
H1937       H  0.19605163  0.14386195  0.82864516     0.18300
F1938       F  0.15187187  0.14125150  0.83068781    -0.19460
C1939       C  0.30185253  0.14367981  0.86383390    -0.20890
C1940       C  0.29338324  0.12090063  0.86247061    -0.08940
C1941       C  0.30884526  0.10241620  0.86637384     0.29920
C1942       C  0.33261448  0.10662249  0.86904284    -0.20890
C1943       C  0.34136904  0.12928691  0.86806171    -0.08950
C1944       C  0.32570191  0.14786554  0.86655643     0.29930
F1945       F  0.33365236  0.17000059  0.86615123    -0.19470
H1946       H  0.29030642  0.15815116  0.86093051     0.18290
H1947       H  0.34438915  0.09208324  0.87021554     0.18300
F1948       F  0.30115591  0.08015491  0.86586313    -0.19460
C1949       C  0.86274964  0.12868142  0.80351897    -0.20890
C1950       C  0.88026055  0.14344767  0.79495663    -0.08940
C1951       C  0.89863110  0.14955058  0.80980001     0.29920
C1952       C  0.89790549  0.14394984  0.83296331    -0.20890
C1953       C  0.88068175  0.12930764  0.84210743    -0.08950
C1954       C  0.86329473  0.12105458  0.82679739     0.29930
F1955       F  0.84746114  0.10515507  0.83382157    -0.19470
H1956       H  0.84880743  0.12301499  0.79225357     0.18290
H1957       H  0.91169529  0.15087136  0.84355369     0.18300
F1958       F  0.91775011  0.16095298  0.80194331    -0.19460
C1959       C  0.89927724  0.13057195  0.69423244    -0.20890
C1960       C  0.87951517  0.13657750  0.70721658    -0.08940
C1961       C  0.85765872  0.13574769  0.69653523     0.29920
C1962       C  0.85597315  0.13170010  0.67264697    -0.20890
C1963       C  0.87600750  0.12829059  0.65919696    -0.08950
C1964       C  0.89756114  0.12629088  0.67039038     0.29930
F1965       F  0.91719508  0.12243052  0.65800125    -0.19470
H1966       H  0.91629962  0.13122171  0.70218663     0.18290
H1967       H  0.83924689  0.13346120  0.66427811     0.18300
F1968       F  0.83832252  0.14167068  0.70858806    -0.19460
C1969       C  0.94406812  0.10331806  0.85631419    -0.20890
C1970       C  0.95583390  0.12338087  0.86341299    -0.08940
C1971       C  0.94491395  0.13880931  0.87867106     0.29920
C1972       C  0.92143336  0.13598461  0.88394038    -0.20890
C1973       C  0.90846592  0.11783148  0.87383112    -0.08950
C1974       C  0.92054214  0.10038086  0.86174350     0.29930
F1975       F  0.90869394  0.08253153  0.85190672    -0.19470
H1976       H  0.95234919  0.09122790  0.84456158     0.18290
H1977       H  0.91305079  0.15033000  0.89231610     0.18300
F1978       F  0.95598476  0.15843709  0.88564247    -0.19460
C1979       C  0.05865266  0.12083736  0.83749275    -0.20890
C1980       C  0.04229002  0.12753959  0.85418033    -0.08940
C1981       C  0.04968094  0.13209530  0.87696776     0.29920
C1982       C  0.07337685  0.13186899  0.88231173    -0.20890
C1983       C  0.08990309  0.12695998  0.86509904    -0.08950
C1984       C  0.08225491  0.12058813  0.84281080     0.29930
F1985       F  0.09757618  0.11674805  0.82540711    -0.19470
H1986       H  0.05324400  0.11739654  0.81982304     0.18290
H1987       H  0.07896278  0.13727833  0.89942549     0.18300
F1988       F  0.03430201  0.13905177  0.89338744    -0.19460
C1989       C  0.11798439  0.17310463  0.88905363    -0.20890
C1990       C  0.11774674  0.16019948  0.86827925    -0.08940
C1991       C  0.11504963  0.17211599  0.84722254     0.29920
C1992       C  0.11204420  0.19601315  0.84700516    -0.20890
C1993       C  0.10970116  0.20860057  0.86773643    -0.08950
C1994       C  0.11373395  0.19716766  0.88885431     0.29930
F1995       F  0.11130766  0.20869225  0.90923562    -0.19470
H1996       H  0.11936645  0.16423561  0.90550843     0.18290
H1997       H  0.10889920  0.20438852  0.83051315     0.18300
F1998       F  0.11284639  0.16052365  0.82686632    -0.19460
C1999       C  0.12969874  0.30215967  0.86797873    -0.20890
C2000       C  0.10672894  0.29687902  0.87417195    -0.08940
C2001       C  0.09215536  0.31504708  0.88161348     0.29920
C2002       C  0.09965894  0.33810169  0.88047785    -0.20890
C2003       C  0.12203245  0.34353496  0.87248001    -0.08950
C2004       C  0.13731021  0.32525667  0.86714617     0.29930
F2005       F  0.15923301  0.32976614  0.85986492    -0.19470
H2006       H  0.14123730  0.28857833  0.86210158     0.18290
H2007       H  0.08749006  0.35180606  0.88448916     0.18300
F2008       F  0.07002976  0.31057951  0.88842680    -0.19460
C2009       C  0.14342721  0.36475580  0.80200953    -0.20890
C2010       C  0.12103429  0.36393306  0.79240400    -0.08940
C2011       C  0.10192467  0.36984435  0.80638601     0.29920
C2012       C  0.10480273  0.37324435  0.83009149    -0.20890
C2013       C  0.12685031  0.37190905  0.84023023    -0.08950
C2014       C  0.14636972  0.36896044  0.82586427     0.29930
F2015       F  0.16797417  0.36824998  0.83515081    -0.19470
H2016       H  0.15835526  0.36030120  0.79150577     0.18290
H2017       H  0.08952348  0.37520665  0.84088241     0.18300
F2018       F  0.08009597  0.36985159  0.79749068    -0.19460
C2019       C  0.13004674  0.34270718  0.68745464    -0.20890
C2020       C  0.12317830  0.35868857  0.70451726    -0.08940
C2021       C  0.11797720  0.38150374  0.69784377     0.29920
C2022       C  0.11779899  0.38750257  0.67429198    -0.20890
C2023       C  0.12279140  0.37089828  0.65714183    -0.08950
C2024       C  0.12955029  0.34857547  0.66401222     0.29930
F2025       F  0.13289456  0.33159598  0.64807958    -0.19470
H2026       H  0.13384396  0.32496888  0.69219084     0.18290
H2027       H  0.11203839  0.40462325  0.66934810     0.18300
F2028       F  0.11067326  0.39723579  0.71375929    -0.19460
C2029       C  0.90591384  0.19032887  0.62443126    -0.20890
C2030       C  0.88836033  0.20657910  0.62878440    -0.08940
C2031       C  0.86537432  0.19864806  0.63158323     0.29920
C2032       C  0.86048916  0.17476179  0.63140853    -0.20890
C2033       C  0.87841266  0.15857417  0.62844182    -0.08950
C2034       C  0.90116681  0.16667423  0.62481037     0.29930
F2035       F  0.91909373  0.15162386  0.62257702    -0.19470
H2036       H  0.92373214  0.19596509  0.62218806     0.18290
H2037       H  0.84298606  0.16886021  0.63494598     0.18300
F2038       F  0.84805460  0.21376280  0.63648374    -0.19460
C2039       C  0.05214267  0.39283583  0.63430128    -0.20890
C2040       C  0.04130334  0.37110527  0.63620941    -0.08940
C2041       C  0.05445955  0.35098214  0.63228634     0.29920
C2042       C  0.07842952  0.35248899  0.62931246    -0.20890
C2043       C  0.08963032  0.37407911  0.62927910    -0.08950
C2044       C  0.07622075  0.39434427  0.63070686     0.29930
F2045       F  0.08668210  0.41543594  0.63083093    -0.19470
H2046       H  0.04236330  0.40849413  0.63761000     0.18290
H2047       H  0.08845061  0.33666778  0.62884880     0.18300
F2048       F  0.04444471  0.32972092  0.63396910    -0.19460
C2049       C  0.18685982  0.12110468  0.40891562    -0.20890
C2050       C  0.20447769  0.12531245  0.39262267    -0.08940
C2051       C  0.19829565  0.12836635  0.36919326     0.29920
C2052       C  0.17476871  0.12874021  0.36273119    -0.20890
C2053       C  0.15729774  0.12671396  0.37961637    -0.08950
C2054       C  0.16366573  0.12309607  0.40280589     0.29930
F2055       F  0.14746002  0.12268591  0.41989707    -0.19470
H2056       H  0.19110571  0.11868823  0.42704801     0.18290
H2057       H  0.17017946  0.13217116  0.34487255     0.18300
F2058       F  0.21471007  0.13318125  0.35302093    -0.19460
C2059       C  0.30491995  0.15039623  0.38170380    -0.20890
C2060       C  0.29244471  0.13057774  0.38823734    -0.08940
C2061       C  0.30367833  0.10901530  0.38810916     0.29920
C2062       C  0.32757552  0.10780931  0.38329767    -0.20890
C2063       C  0.34047283  0.12810598  0.37906051    -0.08950
C2064       C  0.32872327  0.14939458  0.37793627     0.29930
F2065       F  0.34038731  0.16967988  0.37583226    -0.19470
H2066       H  0.29659702  0.16721107  0.38196573     0.18290
H2067       H  0.33638928  0.09134795  0.38489590     0.18300
F2068       F  0.29218010  0.08963793  0.39489725    -0.19460
C2069       C  0.14727201  0.31011646  0.39674997    -0.20890
C2070       C  0.13881564  0.29436907  0.38011005    -0.08940
C2071       C  0.12221148  0.30244459  0.36409106     0.29920
C2072       C  0.11494291  0.32584332  0.36482852    -0.20890
C2073       C  0.12516174  0.34165703  0.38060739    -0.08950
C2074       C  0.14211797  0.33331032  0.39587398     0.29930
F2075       F  0.15450977  0.34751553  0.40992936    -0.19470
H2076       H  0.15880002  0.30478515  0.41053211     0.18290
H2077       H  0.10159324  0.33160706  0.35300208     0.18300
F2078       F  0.11327082  0.28806761  0.34772520    -0.19460
C2079       C  0.13350246  0.17132453  0.35643671    -0.20890
C2080       C  0.12746983  0.15742900  0.37549109    -0.08940
C2081       C  0.12197520  0.16824759  0.39666928     0.29920
C2082       C  0.12486803  0.19226189  0.39922956    -0.20890
C2083       C  0.13285153  0.20585076  0.38063333    -0.08950
C2084       C  0.13594529  0.19534996  0.35888107     0.29930
F2085       F  0.14401192  0.20790987  0.34071044    -0.19470
H2086       H  0.13799179  0.16331791  0.34003672     0.18290
H2087       H  0.12265733  0.20000548  0.41621509     0.18300
F2088       F  0.11564321  0.15546257  0.41533078    -0.19460
C2089       C  0.30217559  0.38693541  0.62560061    -0.20890
C2090       C  0.29175738  0.36833977  0.61375598    -0.08940
C2091       C  0.30411971  0.34756553  0.61163624     0.29920
C2092       C  0.32742833  0.34674315  0.61711234    -0.20890
C2093       C  0.33919198  0.36586948  0.62693961    -0.08950
C2094       C  0.32547356  0.38536602  0.63307380     0.29930
F2095       F  0.33410150  0.40264015  0.64650871    -0.19470
H2096       H  0.29255677  0.40275848  0.62853648     0.18290
H2097       H  0.33614533  0.33085173  0.61270959     0.18300
F2098       F  0.29403371  0.32829198  0.60244656    -0.19460
C2099       C  0.16646236  0.35153001  0.61383365    -0.20890
C2100       C  0.15586934  0.37298266  0.61789845    -0.08940
C2101       C  0.16989052  0.39287262  0.62008762     0.29920
C2102       C  0.19394809  0.39148153  0.61612449    -0.20890
C2103       C  0.20416185  0.37018692  0.61024426    -0.08950
C2104       C  0.19036903  0.35001382  0.61057131     0.29930
F2105       F  0.19977827  0.32902142  0.60564394    -0.19470
H2106       H  0.15600709  0.33607123  0.61158392     0.18290
H2107       H  0.20423297  0.40721596  0.61587913     0.18300
F2108       F  0.16006058  0.41386374  0.62392160    -0.19460
C2109       C  0.36081123  0.12670992  0.54833283    -0.20890
C2110       C  0.37694306  0.14259534  0.53965499    -0.08940
C2111       C  0.39489102  0.15051514  0.55403302     0.29920
C2112       C  0.39526565  0.14421928  0.57746177    -0.20890
C2113       C  0.37748654  0.13040360  0.58699132    -0.08950
C2114       C  0.36082790  0.12078023  0.57175680     0.29930
F2115       F  0.34252955  0.10843242  0.57954227    -0.19470
H2116       H  0.34666051  0.12075255  0.53744207     0.18290
H2117       H  0.40805356  0.15218504  0.58874170     0.18300
F2118       F  0.41060656  0.16611545  0.54601932    -0.19460
C2119       C  0.38244892  0.16272101  0.43473590    -0.20890
C2120       C  0.37764352  0.14689479  0.45251045    -0.08940
C2121       C  0.37347072  0.12354986  0.44668377     0.29920
C2122       C  0.37201483  0.11683937  0.42332751    -0.20890
C2123       C  0.37453409  0.13329025  0.40560424    -0.08950
C2124       C  0.38030595  0.15623794  0.41158422     0.29930
F2125       F  0.38119372  0.17312778  0.39537552    -0.19470
H2126       H  0.38554301  0.18080764  0.43882084     0.18290
H2127       H  0.36713894  0.09919230  0.41909640     0.18300
F2128       F  0.36832776  0.10782152  0.46336541    -0.19460
C2129       C  0.37827362  0.17288235  0.63114613    -0.20890
C2130       C  0.36461323  0.15676817  0.61900433    -0.08940
C2131       C  0.34331559  0.16390365  0.61016507     0.29920
C2132       C  0.33669617  0.18687922  0.61139929    -0.20890
C2133       C  0.35076159  0.20422801  0.62189253    -0.08950
C2134       C  0.37134353  0.19627424  0.63299074     0.29930
F2135       F  0.38520611  0.21064763  0.64537856    -0.19470
H2136       H  0.39468389  0.16753725  0.63851752     0.18290
H2137       H  0.32053170  0.19018295  0.60282765     0.18300
F2138       F  0.32897367  0.14866673  0.59929166    -0.19460
C2139       C  0.38222488  0.32944012  0.61007422    -0.20890
C2140       C  0.37465833  0.33979454  0.63086937    -0.08940
C2141       C  0.36772558  0.32529642  0.64921142     0.29920
C2142       C  0.36470515  0.30144274  0.64543293    -0.20890
C2143       C  0.36866638  0.29186398  0.62338852    -0.08950
C2144       C  0.37931203  0.30565644  0.60635329     0.29930
F2145       F  0.38343856  0.29685518  0.58488853    -0.19470
H2146       H  0.38681357  0.34002451  0.59535868     0.18290
H2147       H  0.35639969  0.29113643  0.65874819     0.18300
F2148       F  0.36022207  0.33471144  0.66944015    -0.19460
C2149       C  0.12619259  0.38341614  0.54996141    -0.20890
C2150       C  0.12031087  0.36089725  0.54276788    -0.08940
C2151       C  0.11330356  0.34459965  0.55943708     0.29920
C2152       C  0.11446175  0.35004675  0.58298959    -0.20890
C2153       C  0.12225169  0.37192215  0.59033873    -0.08950
C2154       C  0.12728067  0.38889349  0.57362541     0.29930
F2155       F  0.13509591  0.41010710  0.58020912    -0.19470
H2156       H  0.13199036  0.39608887  0.53739578     0.18290
H2157       H  0.11136676  0.33644082  0.59546654     0.18300
F2158       F  0.10757360  0.32267541  0.55298290    -0.19460
C2159       C  0.13374211  0.38221604  0.44403999    -0.20890
C2160       C  0.11913931  0.36661377  0.45557904    -0.08940
C2161       C  0.09978758  0.35757452  0.44390826     0.29920
C2162       C  0.09700442  0.36161407  0.42014376    -0.20890
C2163       C  0.11379507  0.37418224  0.40760206    -0.08950
C2164       C  0.13116217  0.38613411  0.42024159     0.29930
F2165       F  0.14874551  0.39718353  0.40931780    -0.19470
H2166       H  0.14886234  0.38917184  0.45283377     0.18290
H2167       H  0.08355005  0.35220001  0.41093909     0.18300
F2168       F  0.08528167  0.34254564  0.45476707    -0.19460
C2169       C  0.36974406  0.30624323  0.12095055    -0.20890
C2170       C  0.38958557  0.29733334  0.13209761    -0.08940
C2171       C  0.40720148  0.31307475  0.13834876     0.29920
C2172       C  0.40333611  0.33642048  0.13791141    -0.20890
C2173       C  0.38439575  0.34606471  0.12610660    -0.08950
C2174       C  0.36761503  0.33042321  0.11699894     0.29930
F2175       F  0.34984754  0.33798132  0.10369787    -0.19470
H2176       H  0.35620421  0.29462061  0.11501365     0.18290
H2177       H  0.41667428  0.34685618  0.14587609     0.18300
F2178       F  0.42875392  0.30611336  0.14490594    -0.19460
C2179       C  0.36001137  0.17681883  0.12574289    -0.20890
C2180       C  0.37761572  0.16102942  0.11992105    -0.08940
C2181       C  0.39898088  0.16971365  0.11184160     0.29920
C2182       C  0.40315886  0.19351892  0.11139263    -0.20890
C2183       C  0.38664081  0.20910036  0.12008051    -0.08950
C2184       C  0.36445230  0.20073016  0.12586686     0.29930
F2185       F  0.34820034  0.21528350  0.13466279    -0.19470
H2186       H  0.34355239  0.17053537  0.13232530     0.18290
H2187       H  0.42049598  0.19958251  0.10726443     0.18300
F2188       F  0.41707284  0.15540001  0.10773808    -0.19460
C2189       C  0.55374454  0.38977045  0.13058229    -0.20890
C2190       C  0.54495289  0.36754600  0.13543136    -0.08940
C2191       C  0.56025920  0.34859240  0.13521300     0.29920
C2192       C  0.58403263  0.35219242  0.13342252    -0.20890
C2193       C  0.59310305  0.37447450  0.13008254    -0.08950
C2194       C  0.57775611  0.39320876  0.12770868     0.29930
F2195       F  0.58610855  0.41496702  0.12453878    -0.19470
H2196       H  0.54228680  0.40460336  0.13060044     0.18290
H2197       H  0.59549588  0.33758086  0.13586516     0.18300
F2198       F  0.55233019  0.32664444  0.13844120    -0.19460
C2199       C  0.44931117  0.37085921  0.11040359    -0.20890
C2200       C  0.45766307  0.37777979  0.13222262    -0.08940
C2201       C  0.44290466  0.38986590  0.14720240     0.29920
C2202       C  0.41932076  0.39121809  0.14237365    -0.20890
C2203       C  0.40994037  0.38174331  0.12183406    -0.08950
C2204       C  0.42561159  0.37321038  0.10503510     0.29930
F2205       F  0.41738336  0.36342430  0.08524547    -0.19470
H2206       H  0.46049660  0.36144250  0.09861234     0.18290
H2207       H  0.40854704  0.39570860  0.15680891     0.18300
F2208       F  0.45059960  0.39695270  0.16833316    -0.19460
C2209       C  0.61904251  0.19585299  0.34794697    -0.20890
C2210       C  0.61538708  0.21030179  0.36722040    -0.08940
C2211       C  0.61774943  0.20094954  0.38957375     0.29920
C2212       C  0.62131210  0.17699745  0.39234414    -0.20890
C2213       C  0.62203225  0.16225527  0.37288614    -0.08950
C2214       C  0.62140918  0.17206576  0.35064662     0.29930
F2215       F  0.61994478  0.15847478  0.33146755    -0.19470
H2216       H  0.61722636  0.20267028  0.33055472     0.18290
H2217       H  0.62136329  0.16972659  0.40962107     0.18300
F2218       F  0.61414765  0.21439164  0.40855964    -0.19460
C2219       C  0.59142655  0.31529105  0.37348767    -0.20890
C2220       C  0.60902969  0.29869909  0.37091243    -0.08940
C2221       C  0.63231212  0.30627492  0.37070298     0.29920
C2222       C  0.63741375  0.33015091  0.37138174    -0.20890
C2223       C  0.61938084  0.34653353  0.37113104    -0.08950
C2224       C  0.59633756  0.33869230  0.37164022     0.29930
F2225       F  0.57839017  0.35329049  0.36776010    -0.19470
H2226       H  0.57334625  0.31007017  0.37398704     0.18290
H2227       H  0.65530186  0.33585551  0.37027534     0.18300
F2228       F  0.64988158  0.29095420  0.36777840    -0.19460
C2229       C  0.44549210  0.11114594  0.36571314    -0.20890
C2230       C  0.45505250  0.13346144  0.36355951    -0.08940
C2231       C  0.44030842  0.15276465  0.36544695     0.29920
C2232       C  0.41638343  0.14978286  0.36587219    -0.20890
C2233       C  0.40655659  0.12761409  0.36683284    -0.08950
C2234       C  0.42130377  0.10823342  0.36775930     0.29930
F2235       F  0.41226305  0.08654066  0.36885972    -0.19470
H2236       H  0.45649370  0.09604845  0.36412896     0.18290
H2237       H  0.40553359  0.16486948  0.36390348     0.18300
F2238       F  0.44901173  0.17462784  0.36415893    -0.19460
C2239       C  0.55155451  0.13680157  0.38497285    -0.20890
C2240       C  0.54364107  0.12991394  0.36297017    -0.08940
C2241       C  0.55973583  0.12145369  0.34680620     0.29920
C2242       C  0.58335223  0.12303447  0.35124084    -0.20890
C2243       C  0.59175435  0.13093711  0.37266363    -0.08950
C2244       C  0.57549025  0.13704638  0.38991126     0.29930
F2245       F  0.58278771  0.14491243  0.41085941    -0.19470
H2246       H  0.53946072  0.14366651  0.39760452     0.18290
H2247       H  0.59478279  0.12008211  0.33690989     0.18300
F2248       F  0.55268391  0.11444296  0.32542372    -0.19460
C2249       C  0.37807140  0.11512699  0.29865988    -0.20890
C2250       C  0.37216220  0.13745928  0.29114952    -0.08940
C2251       C  0.36414189  0.15363256  0.30755316     0.29920
C2252       C  0.36530426  0.14872474  0.33112134    -0.20890
C2253       C  0.37303476  0.12714300  0.33898964    -0.08950
C2254       C  0.37837269  0.10992623  0.32247035     0.29930
F2255       F  0.38578649  0.08878474  0.32938503    -0.19470
H2256       H  0.38452624  0.10247720  0.28636401     0.18290
H2257       H  0.36262334  0.16278293  0.34311013     0.18300
F2258       F  0.35828333  0.17540669  0.30091736    -0.19460
C2259       C  0.35687752  0.13280948  0.16743997    -0.20890
C2260       C  0.37708645  0.13350330  0.15368544    -0.08940
C2261       C  0.39872411  0.13522858  0.16472355     0.29920
C2262       C  0.40016542  0.13599198  0.18876261    -0.20890
C2263       C  0.38008977  0.13764755  0.20252641    -0.08950
C2264       C  0.35829826  0.13525708  0.19174704     0.29930
F2265       F  0.33851635  0.13740047  0.20433124    -0.19470
H2266       H  0.33999084  0.13213242  0.15922800     0.18290
H2267       H  0.41716864  0.13797484  0.19657227     0.18300
F2268       F  0.41846275  0.13851575  0.15233915    -0.19460
C2269       C  0.60019939  0.37960749  0.30635368    -0.20890
C2270       C  0.61794921  0.36948313  0.29311849    -0.08940
C2271       C  0.63961337  0.36556831  0.30347514     0.29920
C2272       C  0.64255433  0.36937588  0.32731474    -0.20890
C2273       C  0.62402496  0.37728405  0.34107726    -0.08950
C2274       C  0.60319806  0.38364759  0.33009400     0.29930
F2275       F  0.58480166  0.39120329  0.34263135    -0.19470
H2276       H  0.58334393  0.38266458  0.29864385     0.18290
H2277       H  0.65862355  0.36406820  0.33542334     0.18300
F2278       F  0.65702782  0.35563965  0.29114277    -0.19460
C2279       C  0.61814346  0.38677925  0.19829350    -0.20890
C2280       C  0.62338622  0.36426785  0.20570471    -0.08940
C2281       C  0.63221096  0.34823277  0.18959961     0.29920
C2282       C  0.63322249  0.35380800  0.16610885    -0.20890
C2283       C  0.62584987  0.37557257  0.15829496    -0.08950
C2284       C  0.61927994  0.39239901  0.17470140     0.29930
F2285       F  0.61175709  0.41347941  0.16765360    -0.19470
H2286       H  0.61112152  0.39930225  0.21041155     0.18290
H2287       H  0.63738090  0.34023054  0.15388165     0.18300
F2288       F  0.63765674  0.32638992  0.19631314    -0.19460
C2289       C  0.69461793  0.12661530  0.35108927    -0.20890
C2290       C  0.70701007  0.11570584  0.36884702    -0.08940
C2291       C  0.69626339  0.11248271  0.39043803     0.29920
C2292       C  0.67263029  0.11769267  0.39320427    -0.20890
C2293       C  0.65945515  0.12609512  0.37449634    -0.08950
C2294       C  0.67111111  0.13177065  0.35379314     0.29930
F2295       F  0.65941115  0.13955215  0.33507808    -0.19470
H2296       H  0.70265432  0.12920266  0.33429894     0.18290
H2297       H  0.66406635  0.11288925  0.40920961     0.18300
F2298       F  0.70783772  0.10193166  0.40792805    -0.19460
C2299       C  0.83517062  0.09572058  0.37130399    -0.20890
C2300       C  0.84212585  0.11894862  0.37146096    -0.08940
C2301       C  0.82508656  0.13632871  0.37227726     0.29920
C2302       C  0.80143113  0.13029269  0.37130371    -0.20890
C2303       C  0.79467150  0.10685023  0.37030732    -0.08950
C2304       C  0.81187355  0.08969847  0.37220626     0.29930
F2305       F  0.80617092  0.06686332  0.37308886    -0.19470
H2306       H  0.84775693  0.08205338  0.36922369     0.18290
H2307       H  0.78859057  0.14386772  0.36988817     0.18300
F2308       F  0.83129870  0.15900954  0.37244852    -0.19460
C2309       C  0.63922980  0.85276236  0.19362585    -0.20890
C2310       C  0.62877584  0.87188324  0.20430318    -0.08940
C2311       C  0.61198346  0.88445701  0.19208019     0.29920
C2312       C  0.60849406  0.88022518  0.16842716    -0.20890
C2313       C  0.62208967  0.86367518  0.15663122    -0.08950
C2314       C  0.63565655  0.84843898  0.16999542     0.29930
F2315       F  0.64858855  0.83188858  0.15939671    -0.19470
H2316       H  0.65220659  0.84286309  0.20284437     0.18290
H2317       H  0.59829159  0.89264970  0.15907926     0.18300
F2318       F  0.60170564  0.90314096  0.20204824    -0.19460
C2319       C  0.62518454  0.06658851  0.33874710    -0.20890
C2320       C  0.62853997  0.04906648  0.35523395    -0.08940
C2321       C  0.62990151  0.05535165  0.37884302     0.29920
C2322       C  0.62941225  0.07887107  0.38528686    -0.20890
C2323       C  0.62876724  0.09622074  0.36824416    -0.08950
C2324       C  0.62731899  0.08967771  0.34486003     0.29930
F2325       F  0.63007488  0.10536406  0.32760841    -0.19470
H2326       H  0.62358008  0.06241646  0.32049168     0.18290
H2327       H  0.63134700  0.08356881  0.40337017     0.18300
F2328       F  0.63372999  0.03916442  0.39538990    -0.19460
C2329       C  0.68647770  0.89775620  0.14602988    -0.20890
C2330       C  0.70161640  0.89059478  0.12833155    -0.08940
C2331       C  0.69338900  0.87431730  0.11198457     0.29920
C2332       C  0.67021480  0.86628401  0.11321381    -0.20890
C2333       C  0.65474091  0.87548125  0.12985304    -0.08950
C2334       C  0.66330727  0.89191588  0.14570610     0.29930
F2335       F  0.64917082  0.90340699  0.16052431    -0.19470
H2336       H  0.69220101  0.90919031  0.15982164     0.18290
H2337       H  0.66425735  0.85337290  0.10092197     0.18300
F2338       F  0.70734171  0.86670017  0.09464161    -0.19460
C2339       C  0.80392445  0.88997505  0.14676549    -0.20890
C2340       C  0.79013200  0.88957760  0.12668734    -0.08940
C2341       C  0.80041599  0.88326023  0.10547592     0.29920
C2342       C  0.82448348  0.87921317  0.10426522    -0.20890
C2343       C  0.83846598  0.88196049  0.12407646    -0.08950
C2344       C  0.82784059  0.88706302  0.14540170     0.29930
F2345       F  0.84076990  0.89080310  0.16472955    -0.19470
H2346       H  0.79641044  0.89489333  0.16328776     0.18290
H2347       H  0.83243995  0.87563353  0.08762876     0.18300
F2348       F  0.78766984  0.88311588  0.08570970    -0.19460
C2349       C  0.88736971  0.93719416  0.15130759    -0.20890
C2350       C  0.87822158  0.95429934  0.13658090    -0.08940
C2351       C  0.86950668  0.94757897  0.11484260     0.29920
C2352       C  0.86729377  0.92406345  0.10928076    -0.20890
C2353       C  0.87401822  0.90688083  0.12511317    -0.08950
C2354       C  0.88526270  0.91363643  0.14569573     0.29930
F2355       F  0.89159938  0.89757320  0.16159555    -0.19470
H2356       H  0.89377805  0.94198309  0.16831869     0.18290
H2357       H  0.85847715  0.91921108  0.09340153     0.18300
F2358       F  0.86006131  0.96352818  0.10043632    -0.19460
C2359       C  0.86498215  0.08217814  0.15563543    -0.20890
C2360       C  0.87391375  0.09228614  0.13528561    -0.08940
C2361       C  0.88191731  0.07664312  0.11788949     0.29920
C2362       C  0.87893958  0.05231164  0.12059323    -0.20890
C2363       C  0.87009927  0.04316910  0.14146335    -0.08950
C2364       C  0.86551108  0.05881157  0.15957257     0.29930
F2365       F  0.86075997  0.05162620  0.18152177    -0.19470
H2366       H  0.85810500  0.09213867  0.16981755     0.18290
H2367       H  0.88369663  0.04076441  0.10656785     0.18300
F2368       F  0.89337233  0.08422851  0.09888474    -0.19460
C2369       C  0.86651457  0.13943417  0.30403089    -0.20890
C2370       C  0.86967460  0.11735244  0.29432867    -0.08940
C2371       C  0.87748463  0.09923093  0.30849295     0.29920
C2372       C  0.87947204  0.10249253  0.33236696    -0.20890
C2373       C  0.87394888  0.12389748  0.34249957    -0.08950
C2374       C  0.86859930  0.14271177  0.32803898     0.29930
F2375       F  0.86327180  0.16364492  0.33732019    -0.19470
H2376       H  0.86036910  0.15355708  0.29337139     0.18290
H2377       H  0.88289921  0.08758514  0.34309878     0.18300
F2378       F  0.88083432  0.07772525  0.29951490    -0.19460
C2379       C  0.84977577  0.13518209  0.19249347    -0.20890
C2380       C  0.86660424  0.12589735  0.20721216    -0.08940
C2381       C  0.88902503  0.12188497  0.19846111     0.29920
C2382       C  0.89339672  0.12428344  0.17460197    -0.20890
C2383       C  0.87518804  0.12954693  0.15918234    -0.08950
C2384       C  0.85361668  0.13631584  0.16869163     0.29930
F2385       F  0.83461939  0.13856505  0.15521844    -0.19470
H2386       H  0.83237717  0.13823045  0.19896063     0.18290
H2387       H  0.90992282  0.11848940  0.16779499     0.18300
F2388       F  0.90563404  0.11257750  0.21222392    -0.19460
C2389       C  0.44588618  0.87915017  0.13421655    -0.20890
C2390       C  0.45247207  0.87511216  0.11106600    -0.08940
C2391       C  0.43507392  0.87064105  0.09456120     0.29920
C2392       C  0.41191977  0.87403052  0.10015939    -0.20890
C2393       C  0.40502009  0.87860303  0.12299390    -0.08950
C2394       C  0.42221922  0.88048211  0.14025126     0.29930
F2395       F  0.41623265  0.88530194  0.16248492    -0.19470
H2396       H  0.45893842  0.88298780  0.14718428     0.18290
H2397       H  0.39957830  0.87452594  0.08614877     0.18300
F2398       F  0.44068756  0.86603859  0.07213342    -0.19460
C2399       C  0.55595613  0.89662410  0.11659697    -0.20890
C2400       C  0.54114457  0.87779866  0.11204761    -0.08940
C2401       C  0.55032695  0.85524056  0.11232126     0.29920
C2402       C  0.57436261  0.85194525  0.11512886    -0.20890
C2403       C  0.58930096  0.87112922  0.11733661    -0.08950
C2404       C  0.57976465  0.89346089  0.11845989     0.29930
F2405       F  0.59370863  0.91242406  0.12000543    -0.19470
H2406       H  0.54925790  0.91414928  0.11655470     0.18290
H2407       H  0.58146306  0.83464407  0.11390068     0.18300
F2408       F  0.53650713  0.83671689  0.10773510    -0.19460
C2409       C  0.37444758  0.94399413  0.10219650    -0.20890
C2410       C  0.38145346  0.95785523  0.12098558    -0.08940
C2411       C  0.38278052  0.94789171  0.14313564     0.29920
C2412       C  0.37950378  0.92392325  0.14583617    -0.20890
C2413       C  0.37494486  0.90973267  0.12650545    -0.08950
C2414       C  0.37154990  0.92015688  0.10478704     0.29930
F2415       F  0.36829757  0.90707266  0.08549793    -0.19470
H2416       H  0.37349799  0.95132855  0.08495119     0.18290
H2417       H  0.38247687  0.91619813  0.16264667     0.18300
F2418       F  0.38972454  0.96079067  0.16158591    -0.19460
C2419       C  0.36056887  0.07774073  0.11673811    -0.20890
C2420       C  0.37832878  0.09382794  0.12152807    -0.08940
C2421       C  0.39962940  0.08564157  0.13004641     0.29920
C2422       C  0.40333379  0.06198902  0.13277936    -0.20890
C2423       C  0.38659555  0.04582297  0.12552860    -0.08950
C2424       C  0.36466356  0.05384413  0.11858385     0.29930
F2425       F  0.34824097  0.03872255  0.11100113    -0.19470
H2426       H  0.34417270  0.08363031  0.10976928     0.18290
H2427       H  0.42050854  0.05617624  0.13769484     0.18300
F2428       F  0.41803711  0.10000030  0.13265707    -0.19460
C2429       C  0.44386111  0.14870196  0.89472649    -0.20890
C2430       C  0.45582821  0.12928843  0.88640184    -0.08940
C2431       C  0.44492088  0.11442279  0.87060226     0.29920
C2432       C  0.42153702  0.11740793  0.86528246    -0.20890
C2433       C  0.40845637  0.13525247  0.87569867    -0.08950
C2434       C  0.42034795  0.15177123  0.88928838     0.29930
F2435       F  0.40842292  0.16907353  0.89985937    -0.19470
H2436       H  0.45209861  0.16028083  0.90705369     0.18290
H2437       H  0.41339158  0.10337597  0.85619588     0.18300
F2438       F  0.45606242  0.09526254  0.86267129    -0.19460
C2439       C  0.58306921  0.13412993  0.90087002    -0.20890
C2440       C  0.59026447  0.12564575  0.87919603    -0.08940
C2441       C  0.57331530  0.11981149  0.86261549     0.29920
C2442       C  0.54969457  0.12075015  0.86837818    -0.20890
C2443       C  0.54279134  0.12737052  0.89077416    -0.08950
C2444       C  0.55959344  0.13515869  0.90658362     0.29930
F2445       F  0.55338182  0.14156714  0.92838467    -0.19470
H2446       H  0.59554253  0.13781262  0.91430192     0.18290
H2447       H  0.53696665  0.11437661  0.85608134     0.18300
F2448       F  0.57966548  0.11139086  0.84156877    -0.19460
C2449       C  0.39974319  0.11594328  0.05199342    -0.20890
C2450       C  0.37929814  0.11360029  0.03891265    -0.08940
C2451       C  0.35785666  0.11735867  0.04997194     0.29920
C2452       C  0.35700125  0.12133949  0.07406821    -0.20890
C2453       C  0.37743345  0.12101131  0.08741569    -0.08950
C2454       C  0.39885309  0.11858485  0.07599629     0.29930
F2455       F  0.41883632  0.11622263  0.08815057    -0.19470
H2456       H  0.41644844  0.11280097  0.04394167     0.18290
H2457       H  0.34029272  0.12261867  0.08258146     0.18300
F2458       F  0.33774381  0.11467216  0.03802722    -0.19460
C2459       C  0.36175443  0.12365534  0.94323698    -0.20890
C2460       C  0.37690226  0.10588033  0.95040069    -0.08940
C2461       C  0.39293092  0.09722182  0.93397381     0.29920
C2462       C  0.39196186  0.10387357  0.91112184    -0.20890
C2463       C  0.37793667  0.12220006  0.90394826    -0.08950
C2464       C  0.36272650  0.13227679  0.92030015     0.29930
F2465       F  0.34960662  0.15082479  0.91450519    -0.19470
H2466       H  0.34961826  0.13119483  0.95541472     0.18290
H2467       H  0.40377603  0.09545117  0.89928973     0.18300
F2468       F  0.41091130  0.08329750  0.93994116    -0.19460
C2469       C  0.59690080  0.88955341  0.94160587    -0.20890
C2470       C  0.61699882  0.89079574  0.95536430    -0.08940
C2471       C  0.63853701  0.88563040  0.94503939     0.29920
C2472       C  0.63987524  0.88125588  0.92099884    -0.20890
C2473       C  0.61986574  0.88245418  0.90704802    -0.08950
C2474       C  0.59835409  0.88651219  0.91774657     0.29930
F2475       F  0.57888754  0.88974419  0.90494872    -0.19470
H2476       H  0.58003258  0.89317318  0.94908674     0.18290
H2477       H  0.65670664  0.87882124  0.91300315     0.18300
F2478       F  0.65837044  0.88685472  0.95765310    -0.19460
C2479       C  0.61774165  0.86767170  0.04825246    -0.20890
C2480       C  0.62497784  0.89038034  0.04341869    -0.08940
C2481       C  0.63320821  0.90434750  0.06175256     0.29920
C2482       C  0.63173521  0.89663427  0.08466501    -0.20890
C2483       C  0.62243332  0.87470171  0.08969723    -0.08950
C2484       C  0.61643026  0.85988484  0.07120840     0.29930
F2485       F  0.60769862  0.83846205  0.07545891    -0.19470
H2486       H  0.61112913  0.85669186  0.03448503     0.18290
H2487       H  0.63629605  0.90844608  0.09856718     0.18300
F2488       F  0.64065226  0.92629546  0.05763060    -0.19460
C2489       C  0.61214051  0.05826731  0.90165136    -0.20890
C2490       C  0.61060796  0.04438157  0.88168984    -0.08940
C2491       C  0.61539343  0.05434753  0.85997026     0.29920
C2492       C  0.61937180  0.07833311  0.85829912    -0.20890
C2493       C  0.61804538  0.09243942  0.87816164    -0.08950
C2494       C  0.61475020  0.08207173  0.89989553     0.29930
F2495       F  0.61177249  0.09509833  0.91929072    -0.19470
H2496       H  0.60885887  0.05093270  0.91861976     0.18290
H2497       H  0.62145257  0.08613097  0.84137061     0.18300
F2498       F  0.61399769  0.04144204  0.84032335    -0.19460
C2499       C  0.59376645  0.94076708  0.86257326    -0.20890
C2500       C  0.60908961  0.95698246  0.87230095    -0.08940
C2501       C  0.63094347  0.94954454  0.88002822     0.29920
C2502       C  0.63617838  0.92583858  0.88025596    -0.20890
C2503       C  0.61962824  0.90935257  0.87305159    -0.08950
C2504       C  0.59863368  0.91718897  0.86344967     0.29930
F2505       F  0.58126026  0.90225976  0.85825297    -0.19470
H2506       H  0.57668093  0.94617168  0.85693572     0.18290
H2507       H  0.65226608  0.92021275  0.88810974     0.18300
F2508       F  0.64596552  0.96476126  0.88996795    -0.19460
C2509       C  0.80228484  0.36887749  0.13522031    -0.20890
C2510       C  0.79633952  0.37587579  0.11272982    -0.08940
C2511       C  0.81395123  0.38429571  0.09800514     0.29920
C2512       C  0.83722795  0.38336568  0.10476843    -0.20890
C2513       C  0.84339894  0.37457968  0.12657500    -0.08950
C2514       C  0.82562418  0.36823027  0.14211591     0.29930
F2515       F  0.83092220  0.36003236  0.16347185    -0.19470
H2516       H  0.78907213  0.36217715  0.14678719     0.18290
H2517       H  0.85052001  0.38815662  0.09238373     0.18300
F2518       F  0.80873351  0.39168538  0.07630655    -0.19460
C2519       C  0.69792692  0.39391407  0.11501200    -0.20890
C2520       C  0.70773956  0.37168236  0.11394819    -0.08940
C2521       C  0.69333004  0.35230081  0.11779382     0.29920
C2522       C  0.66937659  0.35495849  0.11990348    -0.20890
C2523       C  0.65929119  0.37700741  0.11945213    -0.08950
C2524       C  0.67381546  0.39658654  0.11787890     0.29930
F2525       F  0.66448770  0.41811836  0.11721291    -0.19470
H2526       H  0.70860834  0.40903818  0.11179637     0.18290
H2527       H  0.65854750  0.33960683  0.12024225     0.18300
F2528       F  0.70222978  0.33054381  0.11717781    -0.19460
C2529       C  0.80887107  0.15279816  0.87705712    -0.20890
C2530       C  0.79356598  0.13464811  0.88278309    -0.08940
C2531       C  0.80201426  0.11188750  0.88338008     0.29920
C2532       C  0.82580097  0.10775268  0.88076083    -0.20890
C2533       C  0.84140732  0.12617001  0.87723849    -0.08950
C2534       C  0.83261854  0.14862767  0.87421720     0.29930
F2535       F  0.84721473  0.16679705  0.87077517    -0.19470
H2536       H  0.80265442  0.17048261  0.87653454     0.18290
H2537       H  0.83227932  0.09035263  0.88324328     0.18300
F2538       F  0.78774534  0.09403698  0.88907392    -0.19460
C2539       C  0.69061946  0.11795657  0.90198683    -0.20890
C2540       C  0.70576353  0.12821929  0.88598183    -0.08940
C2541       C  0.69712221  0.13496236  0.86427380     0.29920
C2542       C  0.67322291  0.13360342  0.85977459    -0.20890
C2543       C  0.65769331  0.12568467  0.87687504    -0.08950
C2544       C  0.66683180  0.11703773  0.89774077     0.29930
F2545       F  0.65279573  0.11081978  0.91545866    -0.19470
H2546       H  0.69694817  0.11293016  0.91892625     0.18290
H2547       H  0.66660078  0.14077519  0.84377109     0.18300
F2548       F  0.71126668  0.14533585  0.84857740    -0.19460
C2549       C  0.86544091  0.11402622  0.94834197    -0.20890
C2550       C  0.86900088  0.13696701  0.95585881    -0.08940
C2551       C  0.87579003  0.15373766  0.93954032     0.29920
C2552       C  0.87579945  0.14846099  0.91604617    -0.20890
C2553       C  0.87127617  0.12590224  0.90821793    -0.08950
C2554       C  0.86673070  0.10845971  0.92461039     0.29930
F2555       F  0.86183290  0.08655191  0.91755695    -0.19470
H2556       H  0.86002029  0.10086202  0.96055336     0.18290
H2557       H  0.87816602  0.16244629  0.90379590     0.18300
F2558       F  0.88036537  0.17588850  0.94617657    -0.19460
C2559       C  0.88776254  0.13503573  0.05270575    -0.20890
C2560       C  0.86532297  0.13199758  0.04382390    -0.08940
C2561       C  0.84786354  0.12315644  0.05845966     0.29920
C2562       C  0.85233233  0.11956555  0.08208166    -0.20890
C2563       C  0.87399354  0.12555942  0.09156595    -0.08950
C2564       C  0.89205364  0.13202354  0.07641328     0.29930
F2565       F  0.91324974  0.13773168  0.08497612    -0.19470
H2566       H  0.90140562  0.14190932  0.04175078     0.18290
H2567       H  0.83817869  0.11450187  0.09335661     0.18300
F2568       F  0.82596910  0.12000497  0.05032210    -0.19460
C2569       C  0.88974327  0.17442800  0.12046357    -0.20890
C2570       C  0.87136469  0.15833230  0.11926929    -0.08940
C2571       C  0.84851021  0.16651618  0.11864471     0.29920
C2572       C  0.84403045  0.18995789  0.12050290    -0.20890
C2573       C  0.86208145  0.20633063  0.11912650    -0.08950
C2574       C  0.88518854  0.19840436  0.11977601     0.29930
F2575       F  0.90317753  0.21351763  0.11802629    -0.19470
H2576       H  0.90752777  0.16843244  0.12048626     0.18290
H2577       H  0.82604792  0.19541385  0.12048386     0.18620
F2578       F  0.83033573  0.15197270  0.11490143    -0.19460
C2579       C  0.87300135  0.31023593  0.10251412    -0.20890
C2580       C  0.86766004  0.29503168  0.12071473    -0.08940
C2581       C  0.86728120  0.30366189  0.14354326     0.29920
C2582       C  0.87001021  0.32757806  0.14765533    -0.20890
C2583       C  0.87282686  0.34298165  0.12901131    -0.08950
C2584       C  0.87488024  0.33394683  0.10646103     0.29930
F2585       F  0.87673670  0.34831767  0.08794038    -0.19470
H2586       H  0.87325168  0.30397977  0.08477883     0.18290
H2587       H  0.86809703  0.33422619  0.16511475     0.18300
F2588       F  0.86192494  0.28944727  0.16146239    -0.19460
C2589       C  0.62803977  0.17280589  0.85912317    -0.20890
C2590       C  0.62913588  0.15814147  0.87848428    -0.08940
C2591       C  0.63068139  0.16782232  0.90075885     0.29920
C2592       C  0.63175103  0.19165743  0.90358187    -0.20890
C2593       C  0.63316732  0.20630306  0.88425444    -0.08950
C2594       C  0.63028765  0.19688028  0.86193948     0.29930
F2595       F  0.63191480  0.21057692  0.84293230    -0.19470
H2596       H  0.62724944  0.16550325  0.84182498     0.18290
H2597       H  0.63393589  0.19859613  0.92093064     0.18300
F2598       F  0.63327123  0.15422761  0.91972432    -0.19460
C2599       C  0.61701074  0.35005144  0.05945091    -0.20890
C2600       C  0.62572587  0.36613270  0.04338418    -0.08940
C2601       C  0.63168936  0.38844846  0.05116003     0.29920
C2602       C  0.63172189  0.39341415  0.07498850    -0.20890
C2603       C  0.62613617  0.37613826  0.09122481    -0.08950
C2604       C  0.61810372  0.35456341  0.08313484     0.29930
F2605       F  0.61452121  0.33668811  0.09788120    -0.19470
H2606       H  0.61234095  0.33272113  0.05381519     0.18290
H2607       H  0.63807087  0.41009976  0.08083044     0.18300
F2608       F  0.64009350  0.40445644  0.03614393    -0.19460
C2609       C  0.44688720  0.63730933  0.37757976    -0.20890
C2610       C  0.45377692  0.61404612  0.37529871    -0.08940
C2611       C  0.43667874  0.59705961  0.37121031     0.29920
C2612       C  0.41326645  0.60274131  0.37248391    -0.20890
C2613       C  0.40621667  0.62571056  0.37596068    -0.08950
C2614       C  0.42322121  0.64315448  0.37774369     0.29930
F2615       F  0.41694767  0.66550809  0.38131426    -0.19470
H2616       H  0.45968424  0.65069167  0.38090651     0.18290
H2617       H  0.40058335  0.58888372  0.37187707     0.18300
F2618       F  0.44261467  0.57454923  0.36780453    -0.19460
C2619       C  0.55507052  0.63348384  0.39309034    -0.20890
C2620       C  0.54117093  0.62368679  0.37568295    -0.08940
C2621       C  0.55042958  0.62099674  0.35329499     0.29920
C2622       C  0.57418248  0.62493797  0.34941154    -0.20890
C2623       C  0.58889860  0.63107156  0.36793066    -0.08950
C2624       C  0.57877169  0.63699241  0.38942291     0.29930
F2625       F  0.59219744  0.64130013  0.40822349    -0.19470
H2626       H  0.54819043  0.63559308  0.41045636     0.18290
H2627       H  0.58161227  0.61990916  0.33290084     0.18300
F2628       F  0.53738080  0.61147704  0.33614018    -0.19460
C2629       C  0.36340203  0.43515573  0.59268209    -0.20890
C2630       C  0.37211102  0.45311793  0.60681911    -0.08940
C2631       C  0.37973847  0.44773553  0.62929712     0.29920
C2632       C  0.38045453  0.42464055  0.63662661    -0.20890
C2633       C  0.37339257  0.40653381  0.62183361    -0.08950
C2634       C  0.36411218  0.41205860  0.60002133     0.29930
F2635       F  0.35774108  0.39502321  0.58503092    -0.19470
H2636       H  0.35771623  0.43887671  0.57519069     0.18290
H2637       H  0.38792332  0.42073849  0.65337804     0.18300
F2638       F  0.38884987  0.46443647  0.64321668    -0.19460
C2639       C  0.39844196  0.55525094  0.61060043    -0.20890
C2640       C  0.37862482  0.54120801  0.60801296    -0.08940
C2641       C  0.35671387  0.55099292  0.61256222     0.29920
C2642       C  0.35476369  0.57486532  0.61748064    -0.20890
C2643       C  0.37457633  0.58920586  0.61762077    -0.08950
C2644       C  0.39648095  0.57895335  0.61470070     0.29930
F2645       F  0.41596129  0.59221093  0.61366258    -0.19470
H2646       H  0.41555798  0.54815381  0.60748936     0.18290
H2647       H  0.33769694  0.58246163  0.61929186     0.18300
F2648       F  0.33716095  0.53805440  0.61015853    -0.19460
C2649       C  0.55888938  0.40572899  0.62731676    -0.20890
C2650       C  0.54229261  0.38838170  0.62307931    -0.08940
C2651       C  0.54975600  0.36521706  0.62128104     0.29920
C2652       C  0.57363927  0.36005539  0.62199299    -0.20890
C2653       C  0.59013563  0.37801409  0.62357780    -0.08950
C2654       C  0.58236553  0.40092436  0.62571759     0.29930
F2655       F  0.59745003  0.41900961  0.62466480    -0.19470
H2656       H  0.55366613  0.42369802  0.62879790     0.18290
H2657       H  0.57929134  0.34235427  0.61948976     0.18300
F2658       F  0.53433825  0.34801673  0.61661043    -0.19460
C2659       C  0.44505378  0.38463423  0.63985508    -0.20890
C2660       C  0.45387714  0.38501005  0.61713250    -0.08940
C2661       C  0.43885756  0.37989555  0.59856684     0.29920
C2662       C  0.41513335  0.37736802  0.60238485    -0.20890
C2663       C  0.40594434  0.37869890  0.62484484    -0.08950
C2664       C  0.42115928  0.38138904  0.64372753     0.29930
F2665       F  0.41266941  0.38288558  0.66561967    -0.19470
H2666       H  0.45629666  0.38862899  0.65437505     0.18290
H2667       H  0.40369416  0.37590152  0.58755743     0.18300
F2668       F  0.44690252  0.37935345  0.57643190    -0.19460
C2669       C  0.64133674  0.45082036  0.38377726    -0.20890
C2670       C  0.61949789  0.46099237  0.38738679    -0.08940
C2671       C  0.59945494  0.44726256  0.38464455     0.29920
C2672       C  0.60133021  0.42345315  0.38088322    -0.20890
C2673       C  0.62314392  0.41285243  0.37927996    -0.08950
C2674       C  0.64317805  0.42684273  0.37975542     0.29930
F2675       F  0.66450606  0.41703557  0.37842902    -0.19470
H2676       H  0.65697598  0.46106221  0.38592015     0.18290
H2677       H  0.58569234  0.41301238  0.38112919     0.18300
F2678       F  0.57804215  0.45659046  0.38761556    -0.19460
C2679       C  0.63633566  0.55876413  0.37255087    -0.20890
C2680       C  0.61730685  0.54823420  0.38352562    -0.08940
C2681       C  0.59629950  0.56030010  0.38456731     0.29920
C2682       C  0.59554322  0.58354566  0.37926152    -0.20890
C2683       C  0.61505284  0.59559662  0.37054239    -0.08950
C2684       C  0.63486357  0.58199400  0.36504149     0.29930
F2685       F  0.65246046  0.59053856  0.35202182    -0.19470
H2686       H  0.65235961  0.54927576  0.37026546     0.18290
H2687       H  0.57928176  0.59186434  0.38295722     0.18300
F2688       F  0.57666968  0.55002843  0.39274851    -0.19460
C2689       C  0.62665654  0.40153141  0.56009484    -0.20890
C2690       C  0.61807924  0.38417392  0.54519212    -0.08940
C2691       C  0.61299712  0.36223173  0.55429207     0.29920
C2692       C  0.61424150  0.35850324  0.57822501    -0.20890
C2693       C  0.62092155  0.37643920  0.59337708    -0.08950
C2694       C  0.62824861  0.39770046  0.58400335     0.29930
F2695       F  0.63511302  0.41533498  0.59803730    -0.19470
H2696       H  0.63051035  0.41862302  0.55337415     0.18290
H2697       H  0.60844572  0.34204312  0.58512927     0.18300
F2698       F  0.60443794  0.34522748  0.54039591    -0.19460
C2699       C  0.64121286  0.38513569  0.42377703    -0.20890
C2700       C  0.62263018  0.38075270  0.40852295    -0.08940
C2701       C  0.60108605  0.37419301  0.41791205     0.29920
C2702       C  0.59827207  0.37192137  0.44171135    -0.20890
C2703       C  0.61582734  0.37907238  0.45698078    -0.08950
C2704       C  0.63776879  0.38474216  0.44791017     0.29930
F2705       F  0.65492351  0.39243802  0.46211258    -0.19470
H2706       H  0.65781203  0.39080085  0.41701322     0.18290
H2707       H  0.58105440  0.36813110  0.44831977     0.18300
F2708       F  0.58174889  0.37348488  0.40470969    -0.19460
C2709       C  0.36631606  0.61828150  0.54976786    -0.20890
C2710       C  0.38842949  0.62610604  0.54324242    -0.08940
C2711       C  0.40360460  0.63450127  0.56053076     0.29920
C2712       C  0.39765850  0.63272592  0.58399853    -0.20890
C2713       C  0.37641880  0.62274976  0.59059096    -0.08950
C2714       C  0.36036927  0.61649761  0.57323491     0.29930
F2715       F  0.33949435  0.60723072  0.57902621    -0.19470
H2716       H  0.35447461  0.61149235  0.53682456     0.18290
H2717       H  0.41030357  0.63756800  0.59704495     0.18300
F2718       F  0.42508183  0.64233780  0.55475806    -0.19460
C2719       C  0.37706560  0.60244899  0.44078706    -0.20890
C2720       C  0.38451577  0.62081033  0.45512601    -0.08940
C2721       C  0.38608083  0.64314413  0.44568348     0.29920
C2722       C  0.38248991  0.64653403  0.42189136    -0.20890
C2723       C  0.37685066  0.62783573  0.40720139    -0.08950
C2724       C  0.37317674  0.60589680  0.41705852     0.29930
F2725       F  0.36792588  0.58741832  0.40341518    -0.19470
H2726       H  0.37584109  0.58505926  0.44770203     0.18290
H2727       H  0.38567191  0.66351928  0.41462177     0.18300
F2728       F  0.39345819  0.66118832  0.45892097    -0.19460
C2729       C  0.16462504  0.62421064  0.35627073    -0.20890
C2730       C  0.15405174  0.62137419  0.37803140    -0.08940
C2731       C  0.16825737  0.61792951  0.39754416     0.29920
C2732       C  0.19233355  0.61516366  0.39499380    -0.20890
C2733       C  0.20255404  0.61562548  0.37291984    -0.08950
C2734       C  0.18862473  0.62124209  0.35367503     0.29930
F2735       F  0.19797800  0.62189111  0.33207187    -0.19470
H2736       H  0.15411478  0.62703744  0.34100557     0.18290
H2737       H  0.20266780  0.61067234  0.40999133     0.18300
F2738       F  0.15859462  0.61542171  0.41884405    -0.19460
C2739       C  0.30193876  0.62678248  0.38988539    -0.20890
C2740       C  0.29062849  0.61724633  0.37049848    -0.08940
C2741       C  0.30259307  0.61650098  0.34940194     0.29920
C2742       C  0.32605308  0.62103059  0.34856577    -0.20890
C2743       C  0.33867197  0.62919378  0.36798760    -0.08950
C2744       C  0.32552083  0.63368364  0.38841979     0.29930
F2745       F  0.33458275  0.64546203  0.40658463    -0.19470
H2746       H  0.29270798  0.62856130  0.40614536     0.18290
H2747       H  0.33402607  0.61739197  0.33209337     0.18300
F2748       F  0.29191196  0.60938261  0.32958508    -0.19460
C2749       C  0.10332483  0.44596627  0.36569847    -0.20890
C2750       C  0.12583449  0.45534681  0.36388236    -0.08940
C2751       C  0.14497188  0.44041164  0.36625966     0.29920
C2752       C  0.14173225  0.41657569  0.36710065    -0.20890
C2753       C  0.11942191  0.40693104  0.36784946    -0.08950
C2754       C  0.10011466  0.42182836  0.36797060     0.29930
F2755       F  0.07829288  0.41297645  0.36865425    -0.19470
H2756       H  0.08833181  0.45706886  0.36385312     0.18290
H2757       H  0.15683365  0.40543218  0.36661051     0.18300
F2758       F  0.16702749  0.44881604  0.36583553    -0.19460
C2759       C  0.11636308  0.56102334  0.34824570    -0.20890
C2760       C  0.12061894  0.54426547  0.36529708    -0.08940
C2761       C  0.12362310  0.55162268  0.38841658     0.29920
C2762       C  0.12387886  0.57549056  0.39378154    -0.20890
C2763       C  0.12212724  0.59206531  0.37601397    -0.08950
C2764       C  0.11923331  0.58436060  0.35311655     0.29930
F2765       F  0.12047007  0.59940815  0.33508017    -0.19470
H2766       H  0.11425340  0.55589181  0.33027045     0.18290
H2767       H  0.12725665  0.58099764  0.41141581     0.18300
F2768       F  0.12859646  0.53605208  0.40524877    -0.19460
C2769       C  0.12240613  0.36949362  0.19497762    -0.20890
C2770       C  0.14310408  0.37858083  0.20439521    -0.08940
C2771       C  0.16128650  0.38360162  0.18893517     0.29920
C2772       C  0.15743559  0.38440282  0.16544133    -0.20890
C2773       C  0.13706526  0.37556397  0.15516023    -0.08950
C2774       C  0.11983108  0.36686698  0.17060148     0.29930
F2775       F  0.10104829  0.35514684  0.16267799    -0.19470
H2776       H  0.10835840  0.36436850  0.20634716     0.18290
H2777       H  0.17145287  0.39167394  0.15547216     0.18300
F2778       F  0.18309699  0.38864054  0.19648314    -0.19460
C2779       C  0.11283279  0.37725332  0.29917259    -0.20890
C2780       C  0.13541933  0.37045322  0.29320919    -0.08940
C2781       C  0.15032400  0.36258218  0.31085600     0.29920
C2782       C  0.14376152  0.36437247  0.33415837    -0.20890
C2783       C  0.12200368  0.37347406  0.34025007    -0.08950
C2784       C  0.10617157  0.37883137  0.32249960     0.29930
F2785       F  0.08491559  0.38740926  0.32775639    -0.19470
H2786       H  0.10121530  0.38375821  0.28596184     0.18290
H2787       H  0.15637081  0.36039069  0.34746903     0.18300
F2788       F  0.17230727  0.35592748  0.30565616    -0.19460
C2789       C  0.37009971  0.45239794  0.11889962    -0.20890
C2790       C  0.37207740  0.45825583  0.14252375    -0.08940
C2791       C  0.37531481  0.44053567  0.15883285     0.29920
C2792       C  0.37250291  0.41767254  0.15229998    -0.20890
C2793       C  0.37047999  0.41152781  0.12893568    -0.08950
C2794       C  0.36979134  0.42900311  0.11204428     0.29930
F2795       F  0.36723880  0.42346969  0.08931779    -0.19470
H2796       H  0.36730463  0.46574073  0.10605673     0.18290
H2797       H  0.37220026  0.40456674  0.16567836     0.18300
F2798       F  0.37878406  0.44547086  0.18162536    -0.19460
C2799       C  0.38951804  0.55690064  0.14150794    -0.20890
C2800       C  0.36790806  0.54578482  0.13959399    -0.08940
C2801       C  0.34878373  0.55824685  0.13135379     0.29920
C2802       C  0.35054692  0.58196492  0.12773754    -0.20890
C2803       C  0.37169994  0.59363462  0.13087403    -0.08950
C2804       C  0.39145802  0.58073534  0.13702787     0.29930
F2805       F  0.41206159  0.59155907  0.14078374    -0.19470
H2806       H  0.40437104  0.54757956  0.14814536     0.18290
H2807       H  0.33473498  0.59126952  0.12461534     0.18300
F2808       F  0.32770115  0.54786094  0.12917800    -0.19460
C2809       C  0.30830409  0.37940661  0.15073592    -0.20890
C2810       C  0.29401211  0.38720193  0.13261082    -0.08940
C2811       C  0.30343631  0.38888550  0.11020658     0.29920
C2812       C  0.32723598  0.38537708  0.10663211    -0.20890
C2813       C  0.34197408  0.37971938  0.12517713    -0.08950
C2814       C  0.33202903  0.37542149  0.14703751     0.29930
F2815       F  0.34563235  0.36972498  0.16533552    -0.19470
H2816       H  0.30133934  0.37774939  0.16810250     0.18290
H2817       H  0.33454285  0.38911930  0.08974547     0.18300
F2818       F  0.29019973  0.39636613  0.09229281    -0.19460
C2819       C  0.16739598  0.39810329  0.10966658    -0.20890
C2820       C  0.15996782  0.37612131  0.11717628    -0.08940
C2821       C  0.17695401  0.35937971  0.12233440     0.29920
C2822       C  0.20039584  0.36593520  0.12420453    -0.20890
C2823       C  0.20706434  0.38909989  0.12060327    -0.08950
C2824       C  0.19073793  0.40457051  0.11136489     0.29930
F2825       F  0.19682361  0.42684822  0.10685459    -0.19470
H2826       H  0.15488255  0.41149210  0.10604337     0.18290
H2827       H  0.21272865  0.35366695  0.13116648     0.18300
F2828       F  0.17039574  0.33803265  0.12969669    -0.19460
C2829       C  0.38394781  0.62835715  0.17436360    -0.20890
C2830       C  0.36645959  0.62755092  0.15742285    -0.08940
C2831       C  0.34318699  0.62956746  0.16438752     0.29920
C2832       C  0.33754575  0.63181749  0.18771022    -0.20890
C2833       C  0.35466893  0.62976980  0.20489153    -0.08950
C2834       C  0.37815330  0.62917898  0.19801782     0.29930
F2835       F  0.39530056  0.62691816  0.21395120    -0.19470
H2836       H  0.40195278  0.62638978  0.16937637     0.18290
H2837       H  0.31935657  0.63248616  0.19245336     0.18300
F2838       F  0.32562511  0.62640581  0.14907577    -0.19460
C2839       C  0.36048691  0.65001855  0.30277535    -0.20890
C2840       C  0.36413645  0.62842028  0.29217032    -0.08940
C2841       C  0.37530045  0.61091541  0.30472019     0.29920
C2842       C  0.37925478  0.61365054  0.32842673    -0.20890
C2843       C  0.37262836  0.63411317  0.33998496    -0.08950
C2844       C  0.36493809  0.65296618  0.32655451     0.29930
F2845       F  0.35805170  0.67281773  0.33713417    -0.19470
H2846       H  0.35187285  0.66370933  0.29333449     0.18290
H2847       H  0.38390650  0.59839099  0.33802749     0.18300
F2848       F  0.37934662  0.58996508  0.29475816    -0.19460
C2849       C  0.11496785  0.42303881  0.86170869    -0.20890
C2850       C  0.13204087  0.41064758  0.87401321    -0.08940
C2851       C  0.14846075  0.42334611  0.88694028     0.29920
C2852       C  0.14541548  0.44709615  0.89080205    -0.20890
C2853       C  0.12608388  0.45859719  0.88169898    -0.08950
C2854       C  0.11171254  0.44680819  0.86588404     0.29930
F2855       F  0.09269713  0.45742904  0.85705045    -0.19470
H2856       H  0.10169170  0.41392848  0.85210757     0.18290
H2857       H  0.15665394  0.45588426  0.90307281     0.18300
F2858       F  0.16536737  0.41210543  0.89876181    -0.19460
C2859       C  0.13588284  0.55431414  0.87662468    -0.20890
C2860       C  0.11941478  0.54626126  0.89294538    -0.08940
C2861       C  0.10283607  0.56231639  0.90119181     0.29920
C2862       C  0.10425287  0.58544027  0.89548408    -0.20890
C2863       C  0.11950330  0.59343161  0.87837182    -0.08950
C2864       C  0.13547773  0.57754698  0.86880855     0.29930
F2865       F  0.14984345  0.58400710  0.85135086    -0.19470
H2866       H  0.14859947  0.54258788  0.86939386     0.18290
H2867       H  0.09175342  0.59686467  0.90346045     0.18300
F2868       F  0.08375090  0.55578190  0.91339248    -0.19460
C2869       C  0.09764085  0.39807561  0.93786447    -0.20890
C2870       C  0.10549691  0.38059686  0.95282101    -0.08940
C2871       C  0.12203098  0.36477230  0.94422970     0.29920
C2872       C  0.12972010  0.36637095  0.92098897    -0.20890
C2873       C  0.12012014  0.38298132  0.90583002    -0.08950
C2874       C  0.10339789  0.39826843  0.91471411     0.29930
F2875       F  0.09170708  0.41323353  0.90101318    -0.19470
H2876       H  0.08605704  0.41158640  0.94379500     0.18290
H2877       H  0.14289376  0.35453644  0.91480717     0.18300
F2878       F  0.13041124  0.34770630  0.95795450    -0.19460
C2879       C  0.11940487  0.35772733  0.07532830    -0.20890
C2880       C  0.11877416  0.37770439  0.08932579    -0.08940
C2881       C  0.11611751  0.39941262  0.07872131     0.29920
C2882       C  0.11272858  0.40094821  0.05486317    -0.20890
C2883       C  0.11070857  0.38086640  0.04116174    -0.08950
C2884       C  0.11518236  0.35923859  0.05135806     0.29930
F2885       F  0.11314284  0.33950723  0.03867299    -0.19470
H2886       H  0.12134165  0.34085213  0.08322860     0.18290
H2887       H  0.10933787  0.41780221  0.04738643     0.18300
F2888       F  0.11497881  0.41905799  0.09165633    -0.19460
C2889       C  0.89671987  0.43931855  0.09912282    -0.20890
C2890       C  0.87992900  0.45494950  0.10741030    -0.08940
C2891       C  0.86445608  0.44709462  0.12471773     0.29920
C2892       C  0.86597115  0.42410449  0.13301142    -0.20890
C2893       C  0.88211793  0.40847266  0.12331066    -0.08950
C2894       C  0.89675613  0.41640838  0.10558815     0.29930
F2895       F  0.91125066  0.40199563  0.09400163    -0.19470
H2896       H  0.91011207  0.44453101  0.08704564     0.18290
H2897       H  0.85453323  0.41850205  0.14680869     0.18300
F2898       F  0.84789215  0.46131624  0.13341991    -0.19460
C2899       C  0.90063274  0.55731251  0.11519423    -0.20890
C2900       C  0.88074668  0.54332724  0.11296346    -0.08940
C2901       C  0.85880787  0.55337584  0.11643670     0.29920
C2902       C  0.85686940  0.57745163  0.11961822    -0.20890
C2903       C  0.87672950  0.59163309  0.11887121    -0.08950
C2904       C  0.89868751  0.58125337  0.11730789     0.29930
F2905       F  0.91819525  0.59437782  0.11554062    -0.19470
H2906       H  0.91770957  0.54994249  0.11252514     0.18290
H2907       H  0.83980735  0.58520979  0.12061446     0.18300
F2908       F  0.83925950  0.54039456  0.11417597    -0.19460
C2909       C  0.05198030  0.37021703  0.11983519    -0.20890
C2910       C  0.04581877  0.39272834  0.12660104    -0.08940
C2911       C  0.06338240  0.40806913  0.13405770     0.29920
C2912       C  0.08679423  0.40151812  0.13298874    -0.20890
C2913       C  0.09304249  0.37976461  0.12403990    -0.08950
C2914       C  0.07536279  0.36384640  0.11830415     0.29930
F2915       F  0.08080196  0.34267525  0.10961973    -0.19470
H2916       H  0.03879284  0.35822812  0.11377795     0.18290
H2917       H  0.10010581  0.41413467  0.13720750     0.18300
F2918       F  0.05796294  0.42997414  0.14069306    -0.19460
C2919       C  0.94631814  0.39756561  0.14900296    -0.20890
C2920       C  0.95839642  0.38722632  0.13064063    -0.08940
C2921       C  0.94733166  0.36996237  0.11744602     0.29920
C2922       C  0.92365517  0.36530058  0.12072840    -0.20890
C2923       C  0.91056523  0.37835370  0.13675252    -0.08950
C2924       C  0.92264725  0.39300080  0.15222230     0.29930
F2925       F  0.91078497  0.40557257  0.16820995    -0.19470
H2926       H  0.95461676  0.41088194  0.15938738     0.18290
H2927       H  0.91524553  0.35430119  0.10817357     0.18300
F2928       F  0.95862358  0.35980093  0.09944399    -0.19460
C2929       C  0.88071477  0.60454433  0.94336261    -0.20890
C2930       C  0.88953916  0.62368884  0.95552395    -0.08940
C2931       C  0.89235218  0.64479749  0.94378705     0.29920
C2932       C  0.88782602  0.64609575  0.91986327    -0.20890
C2933       C  0.88084983  0.62631569  0.90727795    -0.08950
C2934       C  0.87689512  0.60559861  0.91951888     0.29930
F2935       F  0.87186681  0.58558224  0.90836285    -0.19470
H2936       H  0.87889283  0.58799850  0.95201974     0.18290
H2937       H  0.89161778  0.66206849  0.91079587     0.18300
F2938       F  0.90160535  0.66341475  0.95488448    -0.19460
C2939       C  0.86906055  0.61995025  0.04972824    -0.20890
C2940       C  0.89140498  0.62752919  0.04351265    -0.08940
C2941       C  0.90635540  0.63572245  0.06098317     0.29920
C2942       C  0.90001320  0.63405111  0.08428397    -0.20890
C2943       C  0.87837731  0.62483447  0.09074487    -0.08950
C2944       C  0.86258329  0.61855993  0.07317306     0.29930
F2945       F  0.84160998  0.60937450  0.07873792    -0.19470
H2946       H  0.85741077  0.61317391  0.03660947     0.18290
H2947       H  0.91296474  0.63797028  0.09722995     0.18300
F2948       F  0.92810222  0.64309080  0.05559390    -0.19460
C2949       C  0.05457952  0.60273370  0.85071513    -0.20890
C2950       C  0.04197784  0.61113741  0.86971760    -0.08940
C2951       C  0.05238638  0.62720123  0.88470571     0.29920
C2952       C  0.07589178  0.63262776  0.88234762    -0.20890
C2953       C  0.08953995  0.62202875  0.86502195    -0.08950
C2954       C  0.07815898  0.60830578  0.84823753     0.29930
F2955       F  0.09061706  0.59769069  0.83131223    -0.19470
H2956       H  0.04674521  0.59025957  0.83901345     0.18290
H2957       H  0.08362722  0.64212234  0.89636803     0.18300
F2958       F  0.04056822  0.63536764  0.90338485    -0.19460
C2959       C  0.93672663  0.59068601  0.86762433    -0.20890
C2960       C  0.95458538  0.60693087  0.87097941    -0.08940
C2961       C  0.94877978  0.63051521  0.87329578     0.29920
C2962       C  0.92538737  0.63719399  0.87442741    -0.20890
C2963       C  0.90766231  0.62045728  0.87347944    -0.08950
C2964       C  0.91359089  0.59717039  0.86961460     0.29930
F2965       F  0.89729283  0.58020641  0.87042773    -0.19470
H2966       H  0.94075438  0.57244026  0.86585096     0.18290
H2967       H  0.92116278  0.65515178  0.87782055     0.18300
F2968       F  0.96552364  0.64671226  0.87690241    -0.19460
C2969       C  0.10693849  0.68761708  0.34249674    -0.20890
C2970       C  0.12126331  0.70415589  0.35362038    -0.08940
C2971       C  0.13462253  0.69651123  0.37270755     0.29920
C2972       C  0.13277116  0.67332789  0.38045892    -0.20890
C2973       C  0.11857058  0.65730964  0.36855324    -0.08950
C2974       C  0.10685478  0.66463625  0.34872255     0.29930
F2975       F  0.09421629  0.64967940  0.33561907    -0.19470
H2976       H  0.09481101  0.69211577  0.32899518     0.18290
H2977       H  0.14196864  0.66804820  0.39591579     0.18300
F2978       F  0.14912711  0.71119550  0.38404392    -0.19460
C2979       C  0.14325028  0.82738535  0.36790051    -0.20890
C2980       C  0.12342082  0.84137055  0.36992081    -0.08940
C2981       C  0.10153891  0.83061060  0.37128616     0.29920
C2982       C  0.09943155  0.80661583  0.36847234    -0.20890
C2983       C  0.11900428  0.79289813  0.36368972    -0.08950
C2984       C  0.14109934  0.80329496  0.36476272     0.29930
F2985       F  0.16034750  0.79066480  0.35998622    -0.19470
H2986       H  0.16026372  0.83530984  0.36676369     0.18290
H2987       H  0.08221435  0.79906259  0.36750301     0.18300
F2988       F  0.08195207  0.84355283  0.37258819    -0.19460
C2989       C  0.86570492  0.63145032  0.19839331    -0.20890
C2990       C  0.88821784  0.62546186  0.20543000    -0.08940
C2991       C  0.90376749  0.61661393  0.18885567     0.29920
C2992       C  0.89789299  0.61653937  0.16538990    -0.20890
C2993       C  0.87619067  0.62463140  0.15796272    -0.08950
C2994       C  0.85970446  0.63105879  0.17481525     0.29930
F2995       F  0.83852510  0.63890686  0.16834554    -0.19470
H2996       H  0.85352017  0.63851006  0.21083397     0.18290
H2997       H  0.91125651  0.61241430  0.15295546     0.18300
F2998       F  0.92560868  0.61046365  0.19511835    -0.19460
C2999       C  0.04825068  0.62567597  0.36448598    -0.20890
C3000       C  0.03914874  0.64313331  0.37854220    -0.08940
C3001       C  0.05301121  0.65256366  0.39617743     0.29920
C3002       C  0.07641688  0.64615061  0.39804668    -0.20890
C3003       C  0.08662476  0.63081299  0.38193892    -0.08950
C3004       C  0.07165936  0.61966849  0.36585201     0.29930
F3005       F  0.07965855  0.60605421  0.34867008    -0.19470
H3006       H  0.03780792  0.61849201  0.35056871     0.18290
H3007       H  0.08728009  0.65528118  0.41040868     0.18300
F3008       F  0.04458666  0.66959469  0.41005102    -0.19460
C3009       C  0.13644310  0.87045106  0.29958565    -0.20890
C3010       C  0.11431928  0.87618119  0.29117647    -0.08940
C3011       C  0.09692155  0.88231587  0.30716288     0.29920
C3012       C  0.10059134  0.87960727  0.33084492    -0.20890
C3013       C  0.12222517  0.87267240  0.33943525    -0.08950
C3014       C  0.14046483  0.86894903  0.32358585     0.29930
F3015       F  0.16171822  0.86244597  0.33121351    -0.19470
H3016       H  0.15001923  0.86533711  0.28764460     0.18290
H3017       H  0.08590660  0.88140183  0.34224100     0.18300
F3018       F  0.07538074  0.88821756  0.29969780    -0.19460
C3019       C  0.12765200  0.86176300  0.16294473    -0.20890
C3020       C  0.12324771  0.88430625  0.15507784    -0.08940
C3021       C  0.12130062  0.90235999  0.17148200     0.29920
C3022       C  0.12005873  0.89722218  0.19525053    -0.20890
C3023       C  0.12111887  0.87413406  0.20278755    -0.08950
C3024       C  0.12688717  0.85673674  0.18660547     0.29930
F3025       F  0.12902930  0.83436169  0.19346649    -0.19470
H3026       H  0.12925592  0.84763070  0.15065363     0.18290
H3027       H  0.11566948  0.91088074  0.20738080     0.18300
F3028       F  0.11701574  0.92429793  0.16432147    -0.19460
C3029       C  0.85966450  0.69636356  0.13254223    -0.20890
C3030       C  0.88202184  0.70572129  0.13562269    -0.08940
C3031       C  0.90135371  0.69100172  0.13324353     0.29920
C3032       C  0.89827773  0.66718644  0.13137901    -0.20890
C3033       C  0.87600171  0.65756156  0.12990425    -0.08950
C3034       C  0.85666674  0.67236958  0.12940793     0.29930
F3035       F  0.83490816  0.66349283  0.12764079    -0.19470
H3036       H  0.84453149  0.70733660  0.13409556     0.18290
H3037       H  0.91337623  0.65611102  0.13234790     0.18300
F3038       F  0.92333732  0.69950739  0.13442545    -0.19460
C3039       C  0.85946921  0.80861058  0.15025383    -0.20890
C3040       C  0.86953569  0.79276243  0.13480049    -0.08940
C3041       C  0.87402075  0.79984517  0.11192147     0.29920
C3042       C  0.87162390  0.82326600  0.10581826    -0.20890
C3043       C  0.86563184  0.83992888  0.12269348    -0.08950
C3044       C  0.85763402  0.83201804  0.14442638     0.29930
F3045       F  0.85285142  0.84715671  0.16172340    -0.19470
H3046       H  0.85584080  0.80343345  0.16793360     0.18290
H3047       H  0.87811583  0.82888564  0.08912176     0.18300
F3048       F  0.88395189  0.78500767  0.09658282    -0.19460
C3049       C  0.05127757  0.88060630  0.10707619    -0.20890
C3050       C  0.04041446  0.87242262  0.12720462    -0.08940
C3051       C  0.05138866  0.87628541  0.14849483     0.29920
C3052       C  0.07445980  0.88290231  0.14924915    -0.20890
C3053       C  0.08747293  0.88756709  0.12890360    -0.08950
C3054       C  0.07414161  0.88957705  0.10816601     0.29930
F3055       F  0.08194923  0.90142696  0.08952819    -0.19470
H3056       H  0.04234877  0.87968295  0.09058695     0.18290
H3057       H  0.08199154  0.88262108  0.16630313     0.18300
F3058       F  0.04057948  0.87084153  0.16873349    -0.19460
C3059       C  0.94395567  0.87565672  0.11617803    -0.20890
C3060       C  0.95284619  0.85519135  0.12611159    -0.08940
C3061       C  0.93661520  0.83787593  0.13213332     0.29920
C3062       C  0.91337500  0.84274444  0.13344195    -0.20890
C3063       C  0.90376628  0.86251979  0.12315526    -0.08950
C3064       C  0.91967037  0.87868448  0.11340741     0.29930
F3065       F  0.91225851  0.89667860  0.10038879    -0.19470
H3066       H  0.95560155  0.88898708  0.10995772     0.18290
H3067       H  0.90290325  0.82954463  0.14145502     0.18300
F3068       F  0.94273612  0.81553266  0.13623548    -0.19460
C3069       C  0.34976301  0.69513182  0.11867789    -0.20890
C3070       C  0.36955432  0.70807324  0.11285108    -0.08940
C3071       C  0.39118483  0.69695559  0.11199032     0.29920
C3072       C  0.39246613  0.67283726  0.11500885    -0.20890
C3073       C  0.37216317  0.65964684  0.11837288    -0.08950
C3074       C  0.35083906  0.67116827  0.12057276     0.29930
F3075       F  0.33060614  0.65930852  0.12182999    -0.19470
H3076       H  0.33287455  0.70335563  0.11904673     0.18290
H3077       H  0.40902457  0.66425206  0.11292976     0.18300
F3078       F  0.41054837  0.70894806  0.10596034    -0.19460
C3079       C  0.36988277  0.80256481  0.13291192    -0.20890
C3080       C  0.37375741  0.79623581  0.10966146    -0.08940
C3081       C  0.37764809  0.81378814  0.09324074     0.29920
C3082       C  0.37353232  0.83672434  0.09899817    -0.20890
C3083       C  0.36916456  0.84330680  0.12194030    -0.08950
C3084       C  0.36806665  0.82608658  0.13912839     0.29930
F3085       F  0.36354742  0.83187421  0.16147749    -0.19470
H3086       H  0.36656759  0.78939762  0.14583909     0.18290
H3087       H  0.37256899  0.84917548  0.08512540     0.18300
F3088       F  0.38241246  0.80845361  0.07077692    -0.19460
C3089       C  0.10560373  0.80404509  0.88532100    -0.20890
C3090       C  0.12796514  0.79436090  0.88551808    -0.08940
C3091       C  0.14704828  0.80849081  0.87978357     0.29920
C3092       C  0.14413058  0.83219272  0.87646737    -0.20890
C3093       C  0.12207122  0.84230978  0.87779102    -0.08950
C3094       C  0.10264032  0.82793050  0.88144533     0.29930
F3095       F  0.08112684  0.83726005  0.88316280    -0.19470
H3096       H  0.09070778  0.79351880  0.88989987     0.18290
H3097       H  0.15940361  0.84297894  0.87433328     0.18300
F3098       F  0.16886814  0.79965506  0.87938290    -0.19460
C3099       C  0.12720711  0.70010528  0.86387124    -0.20890
C3100       C  0.12342331  0.70605971  0.88724563    -0.08940
C3101       C  0.11826344  0.68831383  0.90312155     0.29920
C3102       C  0.12032166  0.66523982  0.89657786    -0.20890
C3103       C  0.12490745  0.65902844  0.87353343    -0.08950
C3104       C  0.12772808  0.67668263  0.85697677     0.29930
F3105       F  0.13258845  0.67131935  0.83460267    -0.19470
H3106       H  0.13148544  0.71340623  0.85136531     0.18290
H3107       H  0.11918500  0.65204782  0.90986280     0.18300
F3108       F  0.11358832  0.69331290  0.92567386    -0.19460
C3109       C  0.10934575  0.87092502  0.92287055    -0.20890
C3110       C  0.12590773  0.87527146  0.90552916    -0.08940
C3111       C  0.14843732  0.88202036  0.91206347     0.29920
C3112       C  0.15462353  0.88269114  0.93550511    -0.20890
C3113       C  0.13857228  0.87642671  0.95280319    -0.08950
C3114       C  0.11554537  0.87151766  0.94633520     0.29930
F3115       F  0.09970006  0.86486724  0.96243651    -0.19470
H3116       H  0.09196692  0.86550074  0.91816630     0.18290
H3117       H  0.17248776  0.88640585  0.94009117     0.18300
F3118       F  0.16500790  0.88585228  0.89577134    -0.19460
C3119       C  0.14017618  0.89797495  0.05050817    -0.20890
C3120       C  0.13269207  0.87721589  0.04028703    -0.08940
C3121       C  0.11844609  0.86211982  0.05310268     0.29920
C3122       C  0.11375181  0.86670852  0.07653116    -0.20890
C3123       C  0.12390419  0.88602781  0.08762457    -0.08950
C3124       C  0.13589663  0.90234892  0.07400652     0.29930
F3125       F  0.14603676  0.92103980  0.08417800    -0.19470
H3126       H  0.15124101  0.90973194  0.04089485     0.18290
H3127       H  0.10488275  0.85365994  0.08672049     0.18300
F3128       F  0.11108480  0.84183819  0.04362104    -0.19460
C3129       C  0.19555348  0.63672084  0.85624243    -0.20890
C3130       C  0.20466650  0.63671923  0.87878612    -0.08940
C3131       C  0.18992659  0.63075644  0.89739362     0.29920
C3132       C  0.16612214  0.62745749  0.89375509    -0.20890
C3133       C  0.15663141  0.62985448  0.87151828    -0.08950
C3134       C  0.17169314  0.63335742  0.85261486     0.29930
F3135       F  0.16306071  0.63526524  0.83083492    -0.19470
H3136       H  0.20652992  0.64124463  0.84168202     0.18290
H3137       H  0.15483957  0.62480359  0.90854390     0.18300
F3138       F  0.19828497  0.62995859  0.91937984    -0.19460
C3139       C  0.34316482  0.61685988  0.05934679    -0.20890
C3140       C  0.35988143  0.62321129  0.04282209    -0.08940
C3141       C  0.38251993  0.62843186  0.05041168     0.29920
C3142       C  0.38745762  0.62943354  0.07429294    -0.20890
C3143       C  0.36977308  0.62585834  0.09076813    -0.08950
C3144       C  0.34756740  0.61946567  0.08290152     0.29930
F3145       F  0.32913217  0.61929402  0.09746050    -0.19470
H3146       H  0.32550099  0.61322341  0.05394393     0.18290
H3147       H  0.40453437  0.63497214  0.07989061     0.18300
F3148       F  0.39903020  0.63511692  0.03501712    -0.19460
C3149       C  0.19409467  0.87892115  0.13143118    -0.20890
C3150       C  0.20098727  0.86024084  0.11716820    -0.08940
C3151       C  0.18425037  0.85086420  0.10184616     0.29920
C3152       C  0.16131869  0.85727086  0.10326000    -0.20890
C3153       C  0.15424544  0.87629320  0.11656699    -0.08950
C3154       C  0.17112989  0.88751070  0.13046586     0.29930
F3155       F  0.16576858  0.90699389  0.14247820    -0.19470
H3156       H  0.20647828  0.88722160  0.14286976     0.18290
H3157       H  0.14931892  0.84781556  0.09244673     0.18300
F3158       F  0.18988641  0.83640298  0.08410870    -0.19460
C3159       C  0.29922688  0.86764866  0.14102149    -0.20890
C3160       C  0.28972902  0.86709062  0.11859007    -0.08940
C3161       C  0.30420368  0.87228790  0.09964811     0.29920
C3162       C  0.32808297  0.87512456  0.10284003    -0.20890
C3163       C  0.33800870  0.87344330  0.12499722    -0.08950
C3164       C  0.32322984  0.87083061  0.14423730     0.29930
F3165       F  0.33225441  0.86906583  0.16587000    -0.19470
H3166       H  0.28846868  0.86339510  0.15582367     0.18290
H3167       H  0.33902269  0.87636111  0.08766154     0.18300
F3168       F  0.29561214  0.87194901  0.07773114    -0.19460
C3169       C  0.60885425  0.32775818  0.88623024    -0.20890
C3170       C  0.62558235  0.34209562  0.87561378    -0.08940
C3171       C  0.64440071  0.33143590  0.86414107     0.29920
C3172       C  0.64707642  0.30751841  0.86471217    -0.20890
C3173       C  0.63205635  0.29374993  0.87780754    -0.08950
C3174       C  0.61215694  0.30373831  0.88758988     0.29930
F3175       F  0.59747673  0.29078378  0.90066463    -0.19470
H3176       H  0.59441875  0.33543828  0.89548836     0.18290
H3177       H  0.66274852  0.30005453  0.85748500     0.18300
F3178       F  0.66235046  0.34373748  0.85556450    -0.19460
C3179       C  0.61353659  0.37910203  0.92250849    -0.20890
C3180       C  0.63090331  0.37190974  0.90700033    -0.08940
C3181       C  0.65263973  0.36547199  0.91572135     0.29920
C3182       C  0.65623503  0.36421851  0.93948879    -0.20890
C3183       C  0.63782458  0.36779744  0.95518836    -0.08950
C3184       C  0.61696797  0.37714377  0.94658568     0.29930
F3185       F  0.59929437  0.38255732  0.96111576    -0.19470
H3186       H  0.59679422  0.38450211  0.91598407     0.18290
H3187       H  0.67301113  0.35834681  0.94553682     0.18300
F3188       F  0.66990203  0.35857389  0.90124838    -0.19460
C3189       C  0.91585294  0.34922944  0.63710444    -0.20890
C3190       C  0.90604025  0.36754581  0.62446023    -0.08940
C3191       C  0.92110168  0.38559663  0.61719204     0.29920
C3192       C  0.94440907  0.38621541  0.62483812    -0.20890
C3193       C  0.95334729  0.36805809  0.63834718    -0.08950
C3194       C  0.93911169  0.34873848  0.64258793     0.29930
F3195       F  0.94753983  0.32927810  0.65273968    -0.19470
H3196       H  0.90564363  0.33471770  0.64297425     0.18290
H3197       H  0.95530627  0.40087126  0.62043091     0.18300
F3198       F  0.91370577  0.40226242  0.60247109    -0.19460
C3199       C  0.88600412  0.30404718  0.60195978    -0.20890
C3200       C  0.87885794  0.29367931  0.62272468    -0.08940
C3201       C  0.86501654  0.30642614  0.63820680     0.29920
C3202       C  0.86128743  0.33009381  0.63452887    -0.20890
C3203       C  0.87172858  0.34140394  0.61557556    -0.08950
C3204       C  0.88227723  0.32774138  0.59826348     0.29930
F3205       F  0.89246810  0.33805379  0.57973835    -0.19470
H3206       H  0.89676760  0.29449426  0.58988248     0.18290
H3207       H  0.85363866  0.34000912  0.64845308     0.18300
F3208       F  0.85799654  0.29680952  0.65849773    -0.19460
C3209       C  0.80534253  0.38406728  0.64615513    -0.20890
C3210       C  0.79170485  0.38803012  0.62641027    -0.08940
C3211       C  0.80182352  0.38550424  0.60436606     0.29920
C3212       C  0.82579454  0.38149428  0.60230076    -0.20890
C3213       C  0.83978935  0.38030077  0.62219771    -0.08950
C3214       C  0.82918717  0.38066674  0.64414402     0.29930
F3215       F  0.84222298  0.37994089  0.66373327    -0.19470
H3216       H  0.79789214  0.38608795  0.66329738     0.18290
H3217       H  0.83370421  0.38137521  0.58526909     0.18300
F3218       F  0.78909935  0.38944003  0.58500171    -0.19460
C3219       C  0.69453789  0.37910152  0.61343035    -0.20890
C3220       C  0.70387205  0.39334867  0.63097460    -0.08940
C3221       C  0.68985316  0.39865517  0.65020538     0.29920
C3222       C  0.66657989  0.39323073  0.65018256    -0.20890
C3223       C  0.65652501  0.37950551  0.63269059    -0.08950
C3224       C  0.67120071  0.37152157  0.61464837     0.29930
F3225       F  0.66352393  0.35597560  0.59874472    -0.19470
H3226       H  0.70521636  0.37388334  0.59888684     0.18290
H3227       H  0.65661585  0.39974034  0.66459802     0.18300
F3228       F  0.69857036  0.40935808  0.66935276    -0.19460
C3229       C  0.86817788  0.44944888  0.61747400    -0.20890
C3230       C  0.87542664  0.45524302  0.63996435    -0.08940
C3231       C  0.88313114  0.43741809  0.65473766     0.29920
C3232       C  0.88171827  0.41417436  0.64776184    -0.20890
C3233       C  0.87265897  0.40829740  0.62593521    -0.08950
C3234       C  0.86666171  0.42620968  0.61054499     0.29930
F3235       F  0.85808350  0.42115340  0.58922011    -0.19470
H3236       H  0.86193497  0.46278601  0.60589749     0.18290
H3237       H  0.88627751  0.40069823  0.65994733     0.18300
F3238       F  0.89050619  0.44243394  0.67653601    -0.19460
C3239       C  0.85327136  0.55626608  0.62945776    -0.20890
C3240       C  0.87312146  0.54341324  0.63517784    -0.08940
C3241       C  0.89486647  0.55454686  0.63485913     0.29920
C3242       C  0.89627800  0.57861417  0.63111516    -0.20890
C3243       C  0.87600447  0.59176756  0.62800886    -0.08950
C3244       C  0.85456809  0.58018680  0.62642355     0.29930
F3245       F  0.83453434  0.59233838  0.62430713    -0.19470
H3246       H  0.83631014  0.54809326  0.62981137     0.18290
H3247       H  0.91294154  0.58720954  0.63255411     0.18300
F3248       F  0.91432614  0.54268978  0.64055165    -0.19460
C3249       C  0.62019442  0.38783245  0.69810160    -0.20890
C3250       C  0.63495451  0.37155632  0.70812129    -0.08940
C3251       C  0.64145751  0.35196846  0.69532483     0.29920
C3252       C  0.63567259  0.35039509  0.67177526    -0.20890
C3253       C  0.62440389  0.36886736  0.66057197    -0.08950
C3254       C  0.61531878  0.38693545  0.67447275     0.29930
F3255       F  0.60666242  0.40642533  0.66507083    -0.19470
H3256       H  0.61540538  0.40322717  0.70777700     0.18290
H3257       H  0.64309780  0.33647953  0.66156990     0.18300
F3258       F  0.65576747  0.33594468  0.70476289    -0.19460
C3259       C  0.61305991  0.37829607  0.82464210    -0.20890
C3260       C  0.63011804  0.38095632  0.84180656    -0.08940
C3261       C  0.65338304  0.38368459  0.83517003     0.29920
C3262       C  0.65970519  0.38225046  0.81209683    -0.20890
C3263       C  0.64283443  0.38101899  0.79459773    -0.08950
C3264       C  0.61927807  0.37873870  0.80106831     0.29930
F3265       F  0.60221980  0.37853474  0.78486974    -0.19470
H3266       H  0.59493082  0.37709876  0.82946089     0.18290
H3267       H  0.67799997  0.38337297  0.80789884     0.18300
F3268       F  0.67025868  0.38751805  0.85116715    -0.19460
C3269       C  0.60768827  0.44681146  0.86113590    -0.20890
C3270       C  0.62939125  0.45720736  0.86472975    -0.08940
C3271       C  0.64711432  0.44440213  0.87543488     0.29920
C3272       C  0.64393220  0.42082246  0.87997762    -0.20890
C3273       C  0.62335961  0.40963795  0.87314646    -0.08950
C3274       C  0.60467353  0.42311148  0.86527378     0.29930
F3275       F  0.58440349  0.41281943  0.85903396    -0.19470
H3276       H  0.59386991  0.45644217  0.85290347     0.18290
H3277       H  0.65849300  0.41083782  0.88625740     0.18300
F3278       F  0.66829177  0.45410713  0.87915664    -0.19460
C3279       C  0.62659319  0.57560358  0.88540085    -0.20890
C3280       C  0.62823980  0.59242660  0.86790832    -0.08940
C3281       C  0.62878271  0.58525563  0.84469952     0.29920
C3282       C  0.62662169  0.56202261  0.83904661    -0.20890
C3283       C  0.62789670  0.54488484  0.85626781    -0.08950
C3284       C  0.62708387  0.55189449  0.87971586     0.29930
F3285       F  0.62874948  0.53618681  0.89706876    -0.19470
H3286       H  0.62665065  0.58078688  0.90344743     0.18290
H3287       H  0.62658840  0.55738876  0.82083724     0.18300
F3288       F  0.63397270  0.60033203  0.82747409    -0.19460
C3289       C  0.80038527  0.63213366  0.87241038    -0.20890
C3290       C  0.79444407  0.60849544  0.87363642    -0.08940
C3291       C  0.81223257  0.59225273  0.87727449     0.29920
C3292       C  0.83536687  0.59905694  0.87618621    -0.20890
C3293       C  0.84152751  0.62239206  0.87359050    -0.08950
C3294       C  0.82381377  0.63908305  0.87258260     0.29930
F3295       F  0.82913727  0.66182995  0.87005611    -0.19470
H3296       H  0.78707534  0.64502396  0.86961222     0.18290
H3297       H  0.84843750  0.58570685  0.87535875     0.18300
F3298       F  0.80731033  0.56937016  0.87980810    -0.19460
C3299       C  0.69514752  0.61084096  0.89237465    -0.20890
C3300       C  0.70651331  0.61448774  0.87119349    -0.08940
C3301       C  0.69426270  0.62475354  0.85286525     0.29920
C3302       C  0.67045439  0.62882067  0.85485885    -0.20890
C3303       C  0.65842736  0.62275906  0.87513472    -0.08950
C3304       C  0.67123730  0.61499779  0.89437760     0.29930
F3305       F  0.66020766  0.60915597  0.91431317    -0.19470
H3306       H  0.70427203  0.60277413  0.90662229     0.18290
H3307       H  0.66112440  0.63423215  0.83960458     0.18300
F3308       F  0.70481796  0.62839212  0.83213085    -0.19460
C3309       C  0.86175048  0.64578327  0.80323685    -0.20890
C3310       C  0.86276034  0.62412495  0.79215249    -0.08940
C3311       C  0.86942663  0.60465445  0.80511579     0.29920
C3312       C  0.87198934  0.60625404  0.82908265    -0.20890
C3313       C  0.86933377  0.62749752  0.84061282    -0.08950
C3314       C  0.86526821  0.64752031  0.82732195     0.29930
F3315       F  0.86281385  0.66840744  0.83784938    -0.19470
H3316       H  0.85639999  0.66094948  0.79364076     0.18290
H3317       H  0.87404408  0.59042413  0.83869933     0.18300
F3318       F  0.87074198  0.58346325  0.79490549    -0.19460
C3319       C  0.88056955  0.62126390  0.69781910    -0.20890
C3320       C  0.85774633  0.62704535  0.70394192    -0.08940
C3321       C  0.84206443  0.63338045  0.68632604     0.29920
C3322       C  0.84840351  0.63151921  0.66301035    -0.20890
C3323       C  0.87067062  0.62390958  0.65681912    -0.08950
C3324       C  0.88701806  0.61972568  0.67443953     0.29930
F3325       F  0.90888508  0.61295040  0.66904726    -0.19470
H3326       H  0.89287047  0.61615988  0.71103035     0.18290
H3327       H  0.83550648  0.63477614  0.64977198     0.18300
F3328       F  0.81997254  0.63955138  0.69168470    -0.19460
C3329       C  0.64918716  0.92503521  0.37220226    -0.20890
C3330       C  0.62799988  0.91340721  0.36891295    -0.08940
C3331       C  0.60821461  0.92643828  0.36321916     0.29920
C3332       C  0.61019975  0.95022954  0.35859726    -0.20890
C3333       C  0.63195244  0.96117487  0.35956448    -0.08950
C3334       C  0.65120197  0.94866284  0.36755686     0.29930
F3335       F  0.67248672  0.95880178  0.36856858    -0.19470
H3336       H  0.66481406  0.91550272  0.37597369     0.18290
H3337       H  0.59522489  0.95958605  0.35229136     0.18300
F3338       F  0.58751006  0.91570273  0.35980722    -0.19460
C3339       C  0.61374756  0.87968712  0.32383212    -0.20890
C3340       C  0.63254593  0.88220993  0.33915369    -0.08940
C3341       C  0.65514625  0.88340415  0.33010921     0.29920
C3342       C  0.65881484  0.88224942  0.30636170    -0.20890
C3343       C  0.64005010  0.88204055  0.29084574    -0.08950
C3344       C  0.61737855  0.87993336  0.29975250     0.29930
F3345       F  0.59872999  0.88022406  0.28540651    -0.19470
H3346       H  0.59617420  0.87926503  0.33049156     0.18290
H3347       H  0.67646846  0.88361001  0.30000302     0.18300
F3348       F  0.67365433  0.88789112  0.34390533    -0.19460
C3349       C  0.88155893  0.61095983  0.32765752    -0.20890
C3350       C  0.87555905  0.63053960  0.34090795    -0.08940
C3351       C  0.87212588  0.65174440  0.32950437     0.29920
C3352       C  0.87648733  0.65368735  0.30575813    -0.20890
C3353       C  0.88452312  0.63463414  0.29290459    -0.08950
C3354       C  0.88597531  0.61293106  0.30378096     0.29930
F3355       F  0.89397104  0.59425140  0.29191904    -0.19470
H3356       H  0.88471451  0.59456824  0.33614361     0.18290
H3357       H  0.87536333  0.67058758  0.29772061     0.18300
F3358       F  0.86718295  0.67121970  0.34172637    -0.19460
C3359       C  0.91095543  0.65936132  0.37579570    -0.20890
C3360       C  0.90448542  0.63613305  0.37283483    -0.08940
C3361       C  0.92185319  0.61905765  0.37259851     0.29920
C3362       C  0.94538353  0.62549986  0.37362277    -0.20890
C3363       C  0.95171329  0.64900363  0.37523931    -0.08950
C3364       C  0.93416785  0.66568283  0.37784851     0.29930
F3365       F  0.93958034  0.68848530  0.38023560    -0.19470
H3366       H  0.89818911  0.67294204  0.37493767     0.18290
H3367       H  0.95857624  0.61235195  0.37142467     0.18300
F3368       F  0.91613732  0.59640956  0.36977191    -0.19460
C3369       C  0.63303507  0.70094917  0.35502042    -0.20890
C3370       C  0.63596511  0.71046108  0.37728935    -0.08940
C3371       C  0.63211289  0.69627791  0.39672174     0.29920
C3372       C  0.62895461  0.67254431  0.39396611    -0.20890
C3373       C  0.62793314  0.66253836  0.37182341    -0.08950
C3374       C  0.62873470  0.67706915  0.35228362     0.29930
F3375       F  0.62766938  0.66786367  0.33064528    -0.19470
H3376       H  0.63596619  0.71154827  0.33983510     0.18290
H3377       H  0.62915441  0.66172677  0.40925765     0.18300
F3378       F  0.63405047  0.70502573  0.41853119    -0.19460
C3379       C  0.65931138  0.81555401  0.36896274    -0.20890
C3380       C  0.64241403  0.79873462  0.37408636    -0.08940
C3381       C  0.61939980  0.80600302  0.37787103     0.29920
C3382       C  0.61403203  0.82977921  0.37805570    -0.20890
C3383       C  0.63158430  0.84653882  0.37509152    -0.08950
C3384       C  0.65429118  0.83904028  0.37055144     0.29930
F3385       F  0.67226466  0.85416231  0.37035236    -0.19470
H3386       H  0.67718912  0.81050362  0.36609534     0.18290
H3387       H  0.59646855  0.83512331  0.38197602     0.18300
F3388       F  0.60262496  0.79043651  0.38344973    -0.19460
C3389       C  0.80097007  0.61067071  0.38737982    -0.20890
C3390       C  0.78974016  0.63220143  0.38699546    -0.08940
C3391       C  0.80203257  0.65172201  0.37907443     0.29920
C3392       C  0.82571827  0.65018601  0.37408475    -0.20890
C3393       C  0.83764555  0.62923333  0.37700152    -0.08950
C3394       C  0.82480829  0.60917370  0.38243371     0.29930
F3395       F  0.83580564  0.58864713  0.38537029    -0.19470
H3396       H  0.79182963  0.59546398  0.39354400     0.18290
H3397       H  0.83515091  0.66597155  0.37042792     0.18300
F3398       F  0.79164620  0.67279614  0.37847686    -0.19460
C3399       C  0.69709914  0.63545294  0.36881738    -0.20890
C3400       C  0.70204459  0.62809675  0.39142701    -0.08940
C3401       C  0.68373225  0.61989463  0.40543438     0.29920
C3402       C  0.66075657  0.62092342  0.39759625    -0.20890
C3403       C  0.65568929  0.63002592  0.37564791    -0.08950
C3404       C  0.67413980  0.63659008  0.36103207     0.29930
F3405       F  0.66984778  0.64528043  0.33964676    -0.19470
H3406       H  0.71083916  0.64204428  0.35781056     0.18290
H3407       H  0.64680024  0.61603854  0.40920643     0.18300
F3408       F  0.68796844  0.61231667  0.42727774    -0.19460
C3409       C  0.86991645  0.66298366  0.43887102    -0.20890
C3410       C  0.86800623  0.64519730  0.45534293    -0.08940
C3411       C  0.86778239  0.62203055  0.44758904     0.29920
C3412       C  0.86805048  0.61708937  0.42373085    -0.20890
C3413       C  0.86795042  0.63511913  0.40742222    -0.08950
C3414       C  0.86891032  0.65813328  0.41528731     0.29930
F3415       F  0.86670015  0.67608825  0.40037625    -0.19470
H3416       H  0.87025887  0.68096563  0.44430446     0.18290
H3417       H  0.86685446  0.59925493  0.41798841     0.18300
F3418       F  0.86528511  0.60433496  0.46282412    -0.19460
C3419       C  0.89314229  0.64613175  0.55465575    -0.20890
C3420       C  0.87470748  0.63602737  0.54244538    -0.08940
C3421       C  0.86141059  0.61863917  0.55316498     0.29920
C3422       C  0.86454131  0.61381903  0.57677638    -0.20890
C3423       C  0.88048032  0.62686333  0.58998518    -0.08950
C3424       C  0.89621137  0.64139670  0.57821369     0.29930
F3425       F  0.91213673  0.65387863  0.59032583    -0.19470
H3426       H  0.90356525  0.65954614  0.54662626     0.18290
H3427       H  0.85193401  0.60282751  0.58518946     0.18300
F3428       F  0.84330916  0.60874858  0.54172608    -0.19460
C3429       C  0.82639885  0.88439042  0.63101830    -0.20890
C3430       C  0.84219776  0.87005565  0.61908124    -0.08940
C3431       C  0.83409867  0.85699507  0.60027940     0.29920
C3432       C  0.81077478  0.85617261  0.59510566    -0.20890
C3433       C  0.79453807  0.87080509  0.60609552    -0.08950
C3434       C  0.80278355  0.88522916  0.62423140     0.29930
F3435       F  0.78829352  0.89992217  0.63547074    -0.19470
H3436       H  0.83222495  0.89456739  0.64570931     0.18290
H3437       H  0.80573939  0.84338453  0.58233734     0.18300
F3438       F  0.84872098  0.84418918  0.58702551    -0.19460
C3439       C  0.69182790  0.85178643  0.62378715    -0.20890
C3440       C  0.70557865  0.87069249  0.61668549    -0.08940
C3441       C  0.69512651  0.89254091  0.61477444     0.29920
C3442       C  0.67101162  0.89480631  0.61714253    -0.20890
C3443       C  0.65693665  0.87542804  0.62175119    -0.08950
C3444       C  0.66772234  0.85412383  0.62650124     0.29930
F3445       F  0.65482410  0.83511272  0.63161149    -0.19470
H3446       H  0.69946440  0.83471436  0.62507918     0.18290
H3447       H  0.66308032  0.91134979  0.61334174     0.18300
F3448       F  0.70777844  0.91106089  0.60762438    -0.19460
C3449       C  0.84305710  0.68853309  0.60259819    -0.20890
C3450       C  0.85140931  0.70432278  0.61932876    -0.08940
C3451       C  0.86783068  0.69600858  0.63553936     0.29920
C3452       C  0.87569012  0.67287785  0.63434095    -0.20890
C3453       C  0.86625876  0.65725567  0.61801207    -0.08950
C3454       C  0.84904045  0.66539700  0.60291922     0.29930
F3455       F  0.83767851  0.65102435  0.58814133    -0.19470
H3456       H  0.83169917  0.69374123  0.58868500     0.18290
H3457       H  0.88909769  0.66721306  0.64615271     0.18300
F3458       F  0.87621677  0.70987556  0.65260866    -0.19460
C3459       C  0.85130963  0.80551567  0.64721732    -0.20890
C3460       C  0.86011630  0.79206532  0.62897350    -0.08940
C3461       C  0.87662219  0.80188598  0.61405352     0.29920
C3462       C  0.88204447  0.82552117  0.61570551    -0.20890
C3463       C  0.87075920  0.83990499  0.63200708    -0.08950
C3464       C  0.85672822  0.82914276  0.64887800     0.29930
F3465       F  0.84572644  0.84215466  0.66512492    -0.19470
H3466       H  0.83839960  0.79827598  0.65880255     0.18290
H3467       H  0.89241626  0.83263835  0.60202217     0.18300
F3468       F  0.88506206  0.78942906  0.59592565    -0.19460
C3469       C  0.64797607  0.88034541  0.44162332    -0.20890
C3470       C  0.62883018  0.87203204  0.45418550    -0.08940
C3471       C  0.60756380  0.86886940  0.44272475     0.29920
C3472       C  0.60628217  0.87161591  0.41858782    -0.20890
C3473       C  0.62624851  0.87720560  0.40570697    -0.08950
C3474       C  0.64690851  0.88245061  0.41757795     0.29930
F3475       F  0.66689279  0.88648922  0.40584047    -0.19470
H3476       H  0.66464407  0.88236771  0.45011120     0.18290
H3477       H  0.59027609  0.86725936  0.40974219     0.18300
F3478       F  0.58890458  0.86044946  0.45437181    -0.19460
C3479       C  0.62409087  0.84588990  0.55853418    -0.20890
C3480       C  0.62782161  0.86362231  0.54232316    -0.08940
C3481       C  0.62963680  0.88663514  0.55041453     0.29920
C3482       C  0.62899575  0.89133663  0.57439929    -0.20890
C3483       C  0.62709714  0.87313366  0.59045062    -0.08950
C3484       C  0.62512118  0.85034691  0.58214410     0.29930
F3485       F  0.62496192  0.83209971  0.59693823    -0.19470
H3486       H  0.62240946  0.82803540  0.55290405     0.18290
H3487       H  0.63144992  0.90893863  0.58047601     0.18300
F3488       F  0.63397320  0.90421442  0.53545771    -0.19460
C3489       C  0.36815127  0.64685944  0.91632055    -0.20890
C3490       C  0.36852248  0.62478241  0.90618319    -0.08940
C3491       C  0.36748183  0.60520397  0.92064297     0.29920
C3492       C  0.36407535  0.60793690  0.94469981    -0.20890
C3493       C  0.36216408  0.63022146  0.95445307    -0.08950
C3494       C  0.36592786  0.64959366  0.94016384     0.29930
F3495       F  0.36529878  0.67140070  0.94906264    -0.19470
H3496       H  0.36835151  0.66218069  0.90550851     0.18290
H3497       H  0.36125178  0.59277489  0.95535508     0.18300
F3498       F  0.36793979  0.58360097  0.91135008    -0.19460
C3499       C  0.33366255  0.64980594  0.86546810    -0.20890
C3500       C  0.34008412  0.62786607  0.87364961    -0.08940
C3501       C  0.32254523  0.61164595  0.87883456     0.29920
C3502       C  0.29910580  0.61800945  0.87788971    -0.20890
C3503       C  0.29282809  0.64063971  0.87176823    -0.08950
C3504       C  0.31027360  0.65605451  0.86421887     0.29930
F3505       F  0.30477019  0.67795908  0.85776298    -0.19470
H3506       H  0.34680920  0.66268155  0.86159874     0.18290
H3507       H  0.28604570  0.60591273  0.88394133     0.18300
F3508       F  0.32811439  0.59013337  0.88633484    -0.19460
C3509       C  0.34032450  0.91469103  0.62806403    -0.20890
C3510       C  0.36149366  0.90418971  0.62159011    -0.08940
C3511       C  0.37944678  0.91958872  0.61422768     0.29920
C3512       C  0.37717609  0.94388101  0.61721700    -0.20890
C3513       C  0.35617532  0.95343854  0.62509348    -0.08950
C3514       C  0.33720028  0.93838529  0.62788520     0.29930
F3515       F  0.31549925  0.94659083  0.63212376    -0.19470
H3516       H  0.32543779  0.90491699  0.63371831     0.18290
H3517       H  0.39182899  0.95508774  0.61358255     0.18300
F3518       F  0.39872678  0.91183085  0.60335822    -0.19460
C3519       C  0.32205654  0.86730266  0.60947318    -0.20890
C3520       C  0.33986250  0.86538621  0.62607839    -0.08940
C3521       C  0.33376650  0.85921320  0.64889826     0.29920
C3522       C  0.31049614  0.85831421  0.65556125    -0.20890
C3523       C  0.29296464  0.86520999  0.64017229    -0.08950
C3524       C  0.29866789  0.86770448  0.61652724     0.29930
F3525       F  0.28229382  0.87431982  0.60101852    -0.19470
H3526       H  0.32633330  0.87221569  0.59187258     0.18290
H3527       H  0.30650751  0.85590375  0.67375778     0.18300
F3528       F  0.35008062  0.85835781  0.66579026    -0.19460
C3529       C  0.38636724  0.82860716  0.64679937    -0.20890
C3530       C  0.38149923  0.83877176  0.62531708    -0.08940
C3531       C  0.37914258  0.82444456  0.60566763     0.29920
C3532       C  0.38374763  0.80057185  0.60727185    -0.20890
C3533       C  0.39024391  0.79081863  0.62858688    -0.08950
C3534       C  0.39000681  0.80486323  0.64858841     0.29930
F3535       F  0.39536654  0.79588712  0.66965331    -0.19470
H3536       H  0.38857974  0.83927863  0.66210890     0.18290
H3537       H  0.38390767  0.79010180  0.59166362     0.18300
F3538       F  0.37439130  0.83383909  0.58467858    -0.19460
C3539       C  0.37626546  0.69361125  0.61271402    -0.20890
C3540       C  0.39020023  0.70298407  0.63043038    -0.08940
C3541       C  0.39438644  0.68941176  0.65012970     0.29920
C3542       C  0.38871908  0.66618312  0.65027798    -0.20890
C3543       C  0.37630709  0.65564379  0.63202557    -0.08950
C3544       C  0.36852932  0.67035749  0.61393834     0.29930
F3545       F  0.35317431  0.66274472  0.59782665    -0.19470
H3546       H  0.37166158  0.70409397  0.59789079     0.18290
H3547       H  0.39461635  0.65663072  0.66510889     0.18300
F3548       F  0.40503498  0.69838487  0.66918946    -0.19460
C3549       C  0.44756534  0.87030448  0.61809844    -0.20890
C3550       C  0.45354520  0.87713914  0.64067831    -0.08940
C3551       C  0.43580704  0.88426677  0.65592122     0.29920
C3552       C  0.41243618  0.88283681  0.64919353    -0.20890
C3553       C  0.40640465  0.87391814  0.62732641    -0.08950
C3554       C  0.42423503  0.86841377  0.61154935     0.29930
F3555       F  0.41899371  0.85956372  0.59036337    -0.19470
H3556       H  0.46087685  0.86442972  0.60620268     0.18290
H3557       H  0.39900587  0.88671278  0.66175781     0.18300
F3558       F  0.44103276  0.89089243  0.67790883    -0.19460
C3559       C  0.55091287  0.86505751  0.61831585    -0.20890
C3560       C  0.54095604  0.88022092  0.63441808    -0.08940
C3561       C  0.55444999  0.89840351  0.64336197     0.29920
C3562       C  0.57828211  0.89949701  0.63846498    -0.20890
C3563       C  0.58920249  0.88200805  0.62531835    -0.08950
C3564       C  0.57477657  0.86568102  0.61385531     0.29930
F3565       F  0.58365057  0.84728493  0.60250731    -0.19470
H3566       H  0.54076512  0.85071169  0.61155217     0.18290
H3567       H  0.58875949  0.91219481  0.64759337     0.18300
F3568       F  0.54523091  0.91336556  0.65901401    -0.19460
C3569       C  0.39374512  0.61702966  0.69287404    -0.20890
C3570       C  0.37686409  0.62895276  0.70570647    -0.08940
C3571       C  0.35522016  0.63327686  0.69542950     0.29920
C3572       C  0.35189402  0.62892748  0.67173269    -0.20890
C3573       C  0.37019920  0.62055714  0.65793796    -0.08950
C3574       C  0.39046140  0.61265331  0.66917312     0.29930
F3575       F  0.40898738  0.60541960  0.65669312    -0.19470
H3576       H  0.41060146  0.61373337  0.70047503     0.18290
H3577       H  0.33627109  0.63532189  0.66353628     0.18300
F3578       F  0.33858275  0.64486060  0.70738829    -0.19460
C3579       C  0.39370519  0.65565527  0.80914512    -0.20890
C3580       C  0.37867711  0.64496747  0.79299525    -0.08940
C3581       C  0.36342709  0.62764104  0.80148102     0.29920
C3582       C  0.36422019  0.62097291  0.82501758    -0.20890
C3583       C  0.37919210  0.63232838  0.84070454    -0.08950
C3584       C  0.39294954  0.65056773  0.83245811     0.29930
F3585       F  0.40619468  0.66364934  0.84686263    -0.19470
H3586       H  0.40693661  0.66793289  0.80413574     0.18290
H3587       H  0.35330177  0.60687601  0.83092287     0.18300
F3588       F  0.34782564  0.61707521  0.78737736    -0.19460
C3589       C  0.44449902  0.63985794  0.87898519    -0.20890
C3590       C  0.45557510  0.62494475  0.86333166    -0.08940
C3591       C  0.44324543  0.60601448  0.85427440     0.29920
C3592       C  0.41943761  0.60374142  0.85864956    -0.20890
C3593       C  0.40748757  0.62055472  0.87170060    -0.08950
C3594       C  0.42066025  0.63772314  0.88329857     0.29930
F3595       F  0.41019553  0.65517436  0.89495314    -0.19470
H3596       H  0.45376868  0.65471320  0.88588591     0.18290
H3597       H  0.40977364  0.59051192  0.84938142     0.18300
F3598       F  0.45359472  0.59133240  0.83906552    -0.19460
C3599       C  0.55986063  0.62022320  0.84102577    -0.20890
C3600       C  0.54337019  0.62516655  0.85820757    -0.08940
C3601       C  0.55100788  0.62888595  0.88109065     0.29920
C3602       C  0.57490351  0.62941595  0.88604030    -0.20890
C3603       C  0.59136544  0.62691594  0.86817962    -0.08950
C3604       C  0.58344298  0.62224366  0.84559796     0.29930
F3605       F  0.59801881  0.62247800  0.82725942    -0.19470
H3606       H  0.55441545  0.61754887  0.82322966     0.18290
H3607       H  0.58056202  0.63350866  0.90347919     0.18300
F3608       F  0.53563599  0.63429607  0.89807951    -0.19460
C3609       C  0.63994035  0.87166981  0.82724784    -0.20890
C3610       C  0.61983907  0.86933256  0.84092892    -0.08940
C3611       C  0.59848354  0.86525482  0.82988376     0.29920
C3612       C  0.59732561  0.86311651  0.80589708    -0.20890
C3613       C  0.61764490  0.86254272  0.79242160    -0.08950
C3614       C  0.63894409  0.86797747  0.80310253     0.29930
F3615       F  0.65894594  0.86734933  0.79069547    -0.19470
H3616       H  0.65662749  0.87432364  0.83548645     0.18290
H3617       H  0.58069194  0.85901142  0.79810423     0.18300
F3618       F  0.57894324  0.86115942  0.84238371    -0.19460
C3619       C  0.60132944  0.85020110  0.68958961    -0.20890
C3620       C  0.61961516  0.85744806  0.70399026    -0.08940
C3621       C  0.63641215  0.87258571  0.69464441     0.29920
C3622       C  0.63498350  0.87936322  0.67109995    -0.20890
C3623       C  0.61761970  0.86997819  0.65643207    -0.08950
C3624       C  0.60138058  0.85463662  0.66620673     0.29930
F3625       F  0.58554283  0.84309048  0.65319150    -0.19470
H3626       H  0.58720604  0.83965766  0.69615198     0.18290
H3627       H  0.64740774  0.89176224  0.66445748     0.18300
F3628       F  0.65416613  0.88047916  0.70795390    -0.19460
C3629       C  0.62002697  0.69373115  0.84902823    -0.20890
C3630       C  0.61297017  0.70667546  0.86839603    -0.08940
C3631       C  0.61229300  0.69593758  0.89021192     0.29920
C3632       C  0.61624239  0.67201293  0.89203585    -0.20890
C3633       C  0.62096510  0.65866924  0.87216735    -0.08950
C3634       C  0.62377970  0.66995722  0.85078022     0.29930
F3635       F  0.62748139  0.65772156  0.83103517    -0.19470
H3636       H  0.62055701  0.70170437  0.83204973     0.18290
H3637       H  0.61359776  0.66358391  0.90857863     0.18300
F3638       F  0.60539370  0.70799696  0.90921458    -0.19460
C3639       C  0.59348508  0.81021302  0.88485933    -0.20890
C3640       C  0.60907840  0.79413761  0.87544243    -0.08940
C3641       C  0.63091284  0.80193066  0.86780330     0.29920
C3642       C  0.63596791  0.82572436  0.86755577    -0.20890
C3643       C  0.61931842  0.84202108  0.87474315    -0.08950
C3644       C  0.59827107  0.83389020  0.88413111     0.29930
F3645       F  0.58087225  0.84864390  0.88943621    -0.19470
H3646       H  0.57639971  0.80457840  0.89039213     0.18290
H3647       H  0.65207467  0.83155754  0.85979289     0.18300
F3648       F  0.64616665  0.78692255  0.85803073    -0.19460
loop_ 
_geom_bond_atom_site_label_1 
_geom_bond_atom_site_label_2 
_geom_bond_distance 
_geom_bond_site_symmetry_2 
_ccdc_geom_bond_type 
O1           Mg3   2.137       .  S
O1           Mg9   2.129       .  S
O1           C36   1.236       .  S
C2           O15   1.234       .  S
C2           O39   1.268       .  A
C2           H41   1.081       .  S
Mg3          O32   2.137       .  S
Mg3          O47   2.303       .  S
Mg3          O43   2.242       .  S
Mg3          O14   2.322       .  S
O4          Mg46   2.142       .  S
O4          Mg29   2.124       .  S
O4           C25   1.234       .  S
O5           C36   1.272       .  A
O5          Mg29   2.310   1_554  S
C6            O8   1.267       .  A
C6           O20   1.270   1_554  A
C6         C1242   1.471       .  S
O7           C35   1.273       .  A
O7           Mg9   2.319       .  S
O8          Mg40   2.265       .  S
Mg9          O15   2.129   1_554  S
Mg9          O23   2.235       .  S
Mg9          O11   2.296       .  S
C10          O48   1.270       .  A
C10          O16   1.272       .  A
C10        C1251   1.468       .  S
O11          C18   1.271       .  A
H12          C25   1.081       .  S
C13          O27   1.235       .  S
C13          O28   1.271       .  A
C13          H38   1.081       .  S
O14          C37   1.273       .  A
O15         Mg29   2.135       .  S
O16         Mg46   2.292       .  S
C17          O30   1.270       .  A
C17          O22   1.271       .  A
C17        C1224   1.468       .  S
C18          O45   1.265   1_554  A
C18        C1215   1.461       .  S
Mg19         O26   2.157   1_556  S
Mg19         O27   2.140       .  S
Mg19         O20   2.285       .  S
Mg19         O21   2.297       .  S
Mg19         O48   2.257       .  S
O21          C25   1.268       .  A
O22         Mg29   2.298       .  S
O23          C42   1.266       .  A
O24          C44   1.270       .  A
O24         Mg40   2.279       .  S
O26         Mg40   2.136       .  S
O26          C37   1.235       .  S
O27         Mg46   2.142       .  S
O28         Mg40   2.312   1_556  S
Mg29         O45   2.220       .  S
O30         Mg46   2.247       .  S
H31          C36   1.081       .  S
O32         Mg40   2.153       .  S
O32          C35   1.236       .  S
H33          C35   1.081       .  S
H34          C37   1.081       .  S
O39         Mg46   2.295       .  S
C42          O47   1.271       .  A
C42        C1260   1.469       .  S
O43          C44   1.265       .  A
C44        C1233   1.468       .  S
O49         Mg51   2.125       .  S
O49         Mg57   2.146       .  S
O49          C84   1.235       .  S
C50          O63   1.235       .  S
C50          O87   1.270       .  A
C50          H89   1.081       .  S
Mg51         O80   2.136       .  S
Mg51         O95   2.290       .  S
Mg51         O91   2.252       .  S
Mg51         O62   2.308       .  S
O52         Mg94   2.141       .  S
O52         Mg77   2.159       .  S
O52          C73   1.236       .  S
O53          C84   1.268       .  A
O53         Mg77   2.292       .  S
C54          O56   1.265       .  A
C54          O68   1.276       .  A
C54         C934   1.468       .  S
O55          C83   1.268       .  A
O55         Mg57   2.292       .  S
O56         Mg88   2.238       .  S
Mg57         O63   2.129       .  S
Mg57         O71   2.241       .  S
Mg57         O59   2.280       .  S
C58          O96   1.271       .  A
C58          O64   1.272       .  A
C58         C914   1.478       .  S
O59          C66   1.271       .  A
H60          C73   1.081       .  S
C61          O75   1.237       .  S
C61          O76   1.274       .  A
C61          H86   1.081       .  S
O62          C85   1.272       .  A
O63         Mg77   2.139       .  S
O64         Mg94   2.274       .  S
C65          O78   1.269       .  A
C65          O70   1.269       .  A
C65         C905   1.469       .  S
C66          O93   1.271       .  A
C66         C896   1.470       .  S
Mg67         O74   2.144       .  S
Mg67         O75   2.144       .  S
Mg67         O68   2.313       .  S
Mg67         O69   2.320       .  S
Mg67         O96   2.291       .  S
O69          C73   1.273       .  A
O70         Mg77   2.264       .  S
O71          C90   1.268       .  A
O72          C92   1.271       .  A
O72         Mg88   2.292       .  S
O74         Mg88   2.136       .  S
O74          C85   1.237       .  S
O75         Mg94   2.156       .  S
O76         Mg88   2.319       .  S
Mg77         O93   2.275       .  S
O78         Mg94   2.281       .  S
H79          C84   1.081       .  S
O80         Mg88   2.123       .  S
O80          C83   1.235       .  S
H81          C83   1.081       .  S
H82          C85   1.081       .  S
O87         Mg94   2.306       .  S
C90          O95   1.273       .  A
C90         C887   1.461       .  S
O91          C92   1.269       .  A
C92         C923   1.466       .  S
O97         Mg99   2.154       .  S
O97        Mg105   2.165       .  S
O97         C132   1.236       .  S
C98         O111   1.236       .  S
C98         O135   1.271       .  A
C98         H137   1.081       .  S
Mg99        O128   2.167       .  S
Mg99        O143   2.338       .  S
Mg99        O139   2.256       .  S
Mg99        O110   2.283       .  S
O100       Mg142   2.161       .  S
O100       Mg125   2.136       .  S
O100        C121   1.236       .  S
O101        C132   1.270       .  A
O101       Mg125   2.297       .  S
C102        O104   1.275       .  A
C102        O116   1.273       .  A
C102        C816   1.478       .  S
O103        C131   1.266       .  A
O103       Mg105   2.286       .  S
O104       Mg136   2.256       .  S
Mg105       O111   2.141       .  S
Mg105       O119   2.231       .  S
Mg105       O107   2.305       .  S
C106        O144   1.270       .  A
C106        O112   1.282       .  A
C106        C807   1.487       .  S
O107        C114   1.274       .  A
H108        C121   1.081       .  S
C109        O123   1.237       .  S
C109        O124   1.270       .  A
C109        H134   1.081       .  S
O110        C133   1.266       .  A
O111       Mg125   2.154       .  S
O112       Mg142   2.357       .  S
C113        O126   1.276       .  A
C113        O118   1.270       .  A
C113        C780   1.474       .  S
C114        O141   1.268       .  A
C114        C771   1.478       .  S
Mg115       O122   2.134       .  S
Mg115       O123   2.150       .  S
Mg115       O116   2.289       .  S
Mg115       O117   2.288       .  S
Mg115       O144   2.233       .  S
O117        C121   1.268       .  A
O118       Mg125   2.279       .  S
O119        C138   1.272       .  A
O120        C140   1.277       .  A
O120       Mg136   2.326       .  S
O122       Mg136   2.154       .  S
O122        C133   1.234       .  S
O123       Mg142   2.131       .  S
O124       Mg136   2.290       .  S
Mg125       O141   2.235       .  S
O126       Mg142   2.261       .  S
H127        C132   1.081       .  S
O128       Mg136   2.146       .  S
O128        C131   1.233       .  S
H129        C131   1.081       .  S
H130        C133   1.081       .  S
O135       Mg142   2.303       .  S
C138        O143   1.278       .  A
C138        C789   1.484       .  S
O139        C140   1.277       .  A
C140        C798   1.481       .  S
O145       Mg147   2.136       .  S
O145       Mg153   2.158       .  S
O145        C180   1.234       .  S
C146        O159   1.233       .  S
C146        O183   1.266   1_554  A
C146        H185   1.081       .  S
Mg147       O176   2.164   1_554  S
Mg147       O191   2.278       .  S
Mg147       O187   2.237       .  S
Mg147       O158   2.287       .  S
O148       Mg190   2.165   1_554  S
O148       Mg173   2.142       .  S
O148        C169   1.235       .  S
O149        C180   1.268       .  A
O149       Mg173   2.292       .  S
C150        O152   1.270       .  A
C150        O164   1.274       .  A
C150        C963   1.473       .  S
O151        C179   1.268   1_554  A
O151       Mg153   2.286       .  S
O152       Mg184   2.235       .  S
Mg153       O159   2.130       .  S
Mg153       O167   2.219       .  S
Mg153       O155   2.279       .  S
C154        O192   1.270       .  A
C154        O160   1.273       .  A
C154        C981   1.475       .  S
O155        C162   1.270       .  A
H156        C169   1.081       .  S
C157        O171   1.234       .  S
C157        O172   1.268       .  A
C157        H182   1.081       .  S
O158        C181   1.267   1_554  A
O159       Mg173   2.159       .  S
O160       Mg190   2.292       .  S
C161        O174   1.272       .  A
C161        O166   1.279   1_556  A
C161        C972   1.484       .  S
C162        O189   1.277       .  A
C162        C945   1.474       .  S
Mg163       O170   2.131       .  S
Mg163       O171   2.160       .  S
Mg163       O164   2.293       .  S
Mg163       O165   2.291       .  S
Mg163       O192   2.235       .  S
O165        C169   1.268   1_556  A
O166       Mg173   2.334       .  S
O167        C186   1.268       .  A
O168        C188   1.274   1_556  A
O168       Mg184   2.293       .  S
O170       Mg184   2.161       .  S
O170        C181   1.233       .  S
O171       Mg190   2.146       .  S
O172       Mg184   2.294       .  S
Mg173       O189   2.269       .  S
O174       Mg190   2.241       .  S
H175        C180   1.081       .  S
O176       Mg184   2.125       .  S
O176        C179   1.235       .  S
H177        C179   1.081       .  S
H178        C181   1.081       .  S
O183       Mg190   2.283       .  S
C186        O191   1.270       .  A
C186        C990   1.470       .  S
O187        C188   1.270       .  A
C188        C954   1.476       .  S
O193       Mg195   2.153       .  S
O193       Mg201   2.169       .  S
O193        C228   1.236       .  S
C194        O207   1.234       .  S
C194        O231   1.267       .  A
C194        H233   1.081       .  S
Mg195       O224   2.158       .  S
Mg195       O239   2.340       .  S
Mg195       O235   2.273       .  S
Mg195       O206   2.302       .  S
O196       Mg238   2.159       .  S
O196       Mg221   2.120       .  S
O196        C217   1.232       .  S
O197        C228   1.270       .  A
O197       Mg221   2.296       .  S
C198        O200   1.268       .  A
C198        O212   1.270       .  A
C198       C1170   1.471       .  S
O199        C227   1.267       .  A
O199       Mg201   2.288       .  S
O200       Mg232   2.231       .  S
Mg201       O207   2.139       .  S
Mg201       O215   2.230       .  S
Mg201       O203   2.288       .  S
C202        O240   1.271       .  A
C202        O208   1.273       .  A
C202       C1188   1.476       .  S
O203        C210   1.272       .  A
H204        C217   1.081       .  S
C205        O219   1.235       .  S
C205        O220   1.268       .  A
C205        H230   1.081       .  S
O206        C229   1.269       .  A
O207       Mg221   2.155       .  S
O208       Mg238   2.289       .  S
C209        O222   1.272       .  A
C209        O214   1.275       .  A
C209       C1197   1.480       .  S
C210        O237   1.270       .  A
C210       C1161   1.472       .  S
Mg211       O218   2.145       .  S
Mg211       O219   2.175       .  S
Mg211       O212   2.279       .  S
Mg211       O213   2.280       .  S
Mg211       O240   2.235       .  S
O213        C217   1.265       .  A
O214       Mg221   2.297       .  S
O215        C234   1.271       .  A
O216        C236   1.271       .  A
O216       Mg232   2.283       .  S
O218       Mg232   2.156       .  S
O218        C229   1.234       .  S
O219       Mg238   2.143       .  S
O220       Mg232   2.291       .  S
Mg221       O237   2.239       .  S
O222       Mg238   2.257       .  S
H223        C228   1.081       .  S
O224       Mg232   2.138       .  S
O224        C227   1.233       .  S
H225        C227   1.081       .  S
H226        C229   1.081       .  S
O231       Mg238   2.291       .  S
C234        O239   1.279       .  A
C234       C1206   1.485       .  S
O235        C236   1.277       .  A
C236       C1179   1.479       .  S
O241       Mg243   2.147       .  S
O241       Mg249   2.157       .  S
O241        C276   1.234       .  S
C242        O255   1.233       .  S
C242        O279   1.267   1_565  A
C242        H281   1.081       .  S
Mg243       O272   2.166   1_565  S
Mg243       O287   2.353       .  S
Mg243       O283   2.285       .  S
Mg243       O254   2.297       .  S
O244       Mg286   2.178   1_565  S
O244       Mg269   2.136       .  S
O244        C265   1.232       .  S
O245        C276   1.269       .  A
O245       Mg269   2.297       .  S
C246        O248   1.269       .  A
C246        O260   1.268       .  A
C246       C1539   1.471       .  S
O247        C275   1.267   1_565  A
O247       Mg249   2.290       .  S
O248       Mg280   2.245       .  S
Mg249       O255   2.149       .  S
Mg249       O263   2.286       .  S
Mg249       O251   2.294       .  S
C250        O288   1.268       .  A
C250        O256   1.268       .  A
C250       C1584   1.469       .  S
O251        C258   1.278       .  A
H252        C265   1.081       .  S
C253        O267   1.235       .  S
C253        O268   1.268       .  A
C253        H278   1.081       .  S
O254        C277   1.269   1_565  A
O255       Mg269   2.169       .  S
O256       Mg286   2.262       .  S
C257        O270   1.266       .  A
C257        O262   1.272   1_545  A
C257       C1548   1.471       .  S
C258        O285   1.269       .  A
C258       C1557   1.473       .  S
Mg259       O266   2.131       .  S
Mg259       O267   2.163       .  S
Mg259       O260   2.265       .  S
Mg259       O261   2.289       .  S
Mg259       O288   2.231       .  S
O261        C265   1.266   1_545  A
O262       Mg269   2.271       .  S
O263        C282   1.277       .  A
O264        C284   1.267   1_545  A
O264       Mg280   2.257       .  S
O266       Mg280   2.152       .  S
O266        C277   1.235       .  S
O267       Mg286   2.128       .  S
O268       Mg280   2.293       .  S
Mg269       O285   2.258       .  S
O270       Mg286   2.228       .  S
H271        C276   1.081       .  S
O272       Mg280   2.146       .  S
O272        C275   1.234       .  S
H273        C275   1.081       .  S
H274        C277   1.081       .  S
O279       Mg286   2.291       .  S
C282        O287   1.283       .  A
C282       C1575   1.496       .  S
O283        C284   1.279       .  A
C284       C1566   1.474   1_565  S
O289       Mg291   2.134       .  S
O289       Mg297   2.133       .  S
O289        C324   1.235       .  S
C290        O303   1.236       .  S
C290        O327   1.271       .  A
C290        H329   1.081       .  S
Mg291       O320   2.138       .  S
Mg291       O335   2.277       .  S
Mg291       O331   2.262       .  S
Mg291       O302   2.307       .  S
O292       Mg334   2.150       .  S
O292       Mg317   2.152       .  S
O292        C313   1.235       .  S
O293        C324   1.270       .  A
O293       Mg317   2.304       .  S
C294        O296   1.263       .  A
C294        O308   1.274       .  A
C294        C847   1.461       .  S
O295        C323   1.271       .  A
O295       Mg297   2.306       .  S
O296       Mg328   2.237       .  S
Mg297       O303   2.148       .  S
Mg297       O311   2.264       .  S
Mg297       O299   2.292       .  S
C298        O336   1.270       .  A
C298        O304   1.277       .  A
C298        C838   1.474       .  S
O299        C306   1.272       .  A
H300        C313   1.081       .  S
C301        O315   1.236       .  S
C301        O316   1.272       .  A
C301        H326   1.081       .  S
O302        C325   1.271       .  A
O303       Mg317   2.143       .  S
O304       Mg334   2.304       .  S
C305        O318   1.273       .  A
C305        O310   1.272       .  A
C305        C856   1.475       .  S
C306        O333   1.270       .  A
C306        C865   1.470       .  S
Mg307       O314   2.139       .  S
Mg307       O315   2.146       .  S
Mg307       O308   2.298       .  S
Mg307       O309   2.310       .  S
Mg307       O336   2.273       .  S
O309        C313   1.271       .  A
O310       Mg317   2.277       .  S
O311        C330   1.270       .  A
O312        C332   1.267       .  A
O312       Mg328   2.260       .  S
O314       Mg328   2.141       .  S
O314        C325   1.236       .  S
O315       Mg334   2.150       .  S
O316       Mg328   2.309       .  S
Mg317       O333   2.273       .  S
O318       Mg334   2.296       .  S
H319        C324   1.081       .  S
O320       Mg328   2.128       .  S
O320        C323   1.236       .  S
H321        C323   1.081       .  S
H322        C325   1.081       .  S
O327       Mg334   2.309       .  S
C330        O335   1.270       .  A
C330        C874   1.469       .  S
O331        C332   1.267       .  A
C332        C829   1.464       .  S
O337       Mg339   2.135       .  S
O337       Mg345   2.151       .  S
O337        C372   1.235   1_655  S
C338        O351   1.234   1_655  S
C338        O375   1.266   1_655  A
C338        H377   1.081       .  S
Mg339       O368   2.159       .  S
Mg339       O383   2.304       .  S
Mg339       O379   2.256       .  S
Mg339       O350   2.296       .  S
O340       Mg382   2.166       .  S
O340       Mg365   2.133       .  S
O340        C361   1.235       .  S
O341        C372   1.270       .  A
O341       Mg365   2.302       .  S
C342        O344   1.274   1_455  A
C342        O356   1.278       .  A
C342       C1026   1.485   1_455  S
O343        C371   1.271       .  A
O343       Mg345   2.302       .  S
O344       Mg376   2.248       .  S
Mg345       O351   2.131   1_655  S
Mg345       O359   2.273       .  S
Mg345       O347   2.286       .  S
C346        O384   1.277       .  A
C346        O352   1.267       .  A
C346       C1044   1.470       .  S
O347        C354   1.275   1_655  A
H348        C361   1.081       .  S
C349        O363   1.233       .  S
C349        O364   1.266   1_455  A
C349        H374   1.081       .  S
O350        C373   1.269   1_655  A
O351       Mg365   2.164       .  S
O352       Mg382   2.259       .  S
C353        O366   1.267       .  A
C353        O358   1.272       .  A
C353       C1017   1.474       .  S
C354        O381   1.268       .  A
C354       C1001   1.469       .  S
Mg355       O362   2.150       .  S
Mg355       O363   2.157       .  S
Mg355       O356   2.330       .  S
Mg355       O357   2.290       .  S
Mg355       O384   2.273       .  S
O357        C361   1.268       .  A
O358       Mg365   2.296       .  S
O359        C378   1.271       .  A
O360        C380   1.275       .  A
O360       Mg376   2.305       .  S
O362       Mg376   2.165   1_455  S
O362        C373   1.235       .  S
O363       Mg382   2.130       .  S
O364       Mg376   2.284       .  S
Mg365       O381   2.240       .  S
O366       Mg382   2.217       .  S
H367        C372   1.081       .  S
O368       Mg376   2.150       .  S
O368        C371   1.236       .  S
H369        C371   1.081       .  S
H370        C373   1.081       .  S
O375       Mg382   2.281       .  S
C378        O383   1.276       .  A
C378       C1008   1.484       .  S
O379        C380   1.272       .  A
C380       C1035   1.480       .  S
O385       Mg387   2.147       .  S
O385       Mg393   2.157       .  S
O385        C420   1.236       .  S
C386        O399   1.235       .  S
C386        O423   1.269       .  A
C386        H425   1.081       .  S
Mg387       O416   2.165       .  S
Mg387       O431   2.338       .  S
Mg387       O427   2.262       .  S
Mg387       O398   2.290       .  S
O388       Mg430   2.162       .  S
O388       Mg413   2.143       .  S
O388        C409   1.234       .  S
O389        C420   1.271       .  A
O389       Mg413   2.301       .  S
C390        O392   1.269       .  A
C390        O404   1.273       .  A
C390       C1476   1.474       .  S
O391        C419   1.267       .  A
O391       Mg393   2.287       .  S
O392       Mg424   2.227       .  S
Mg393       O399   2.148       .  S
Mg393       O407   2.242       .  S
Mg393       O395   2.295       .  S
C394        O432   1.271       .  A
C394        O400   1.277       .  A
C394       C1449   1.482       .  S
O395        C402   1.273       .  A
H396        C409   1.081       .  S
C397        O411   1.235       .  S
C397        O412   1.267       .  A
C397        H422   1.081       .  S
O398        C421   1.268       .  A
O399       Mg413   2.156       .  S
O400       Mg430   2.329       .  S
C401        O414   1.272       .  A
C401        O406   1.277       .  A
C401       C1440   1.476       .  S
C402        O429   1.274       .  A
C402       C1458   1.478       .  S
Mg403       O410   2.132       .  S
Mg403       O411   2.154       .  S
Mg403       O404   2.290       .  S
Mg403       O405   2.288       .  S
Mg403       O432   2.234       .  S
O405        C409   1.267       .  A
O406       Mg413   2.334       .  S
O407        C426   1.272       .  A
O408        C428   1.269       .  A
O408       Mg424   2.275       .  S
O410       Mg424   2.159       .  S
O410        C421   1.234       .  S
O411       Mg430   2.123       .  S
O412       Mg424   2.282       .  S
Mg413       O429   2.252       .  S
O414       Mg430   2.221       .  S
H415        C420   1.081       .  S
O416       Mg424   2.137       .  S
O416        C419   1.234       .  S
H417        C419   1.081       .  S
H418        C421   1.081       .  S
O423       Mg430   2.293       .  S
C426        O431   1.279       .  A
C426       C1431   1.485       .  S
O427        C428   1.277       .  A
C428       C1467   1.472       .  S
O433       Mg435   2.158       .  S
O433       Mg441   2.163       .  S
O433        C468   1.233       .  S
C434        O447   1.234       .  S
C434        O471   1.267       .  A
C434        H473   1.081       .  S
Mg435       O464   2.165       .  S
Mg435       O479   2.279       .  S
Mg435       O475   2.249       .  S
Mg435       O446   2.280       .  S
O436       Mg478   2.176       .  S
O436       Mg461   2.144       .  S
O436        C457   1.236       .  S
O437        C468   1.267       .  A
O437       Mg461   2.295       .  S
C438        O440   1.277       .  A
C438        O452   1.271       .  A
C438       C1152   1.477       .  S
O439        C467   1.268       .  A
O439       Mg441   2.292       .  S
O440       Mg472   2.268       .  S
Mg441       O447   2.128       .  S
Mg441       O455   2.234       .  S
Mg441       O443   2.317       .  S
C442        O480   1.267       .  A
C442        O448   1.268       .  A
C442       C1143   1.470       .  S
O443        C450   1.277       .  A
H444        C457   1.081       .  S
C445        O459   1.234       .  S
C445        O460   1.268       .  A
C445        H470   1.081       .  S
O446        C469   1.266       .  A
O447       Mg461   2.161       .  S
O448       Mg478   2.262       .  S
C449        O462   1.266       .  A
C449        O454   1.275       .  A
C449       C1134   1.467       .  S
C450        O477   1.275       .  A
C450       C1116   1.490       .  S
Mg451       O458   2.124       .  S
Mg451       O459   2.156       .  S
Mg451       O452   2.278       .  S
Mg451       O453   2.295       .  S
Mg451       O480   2.227       .  S
O453        C457   1.269       .  A
O454       Mg461   2.277       .  S
O455        C474   1.272       .  A
O456        C476   1.278       .  A
O456       Mg472   2.326       .  S
O458       Mg472   2.159       .  S
O458        C469   1.233       .  S
O459       Mg478   2.135       .  S
O460       Mg472   2.292       .  S
Mg461       O477   2.286       .  S
O462       Mg478   2.230       .  S
H463        C468   1.081       .  S
O464       Mg472   2.143       .  S
O464        C467   1.235       .  S
H465        C467   1.081       .  S
H466        C469   1.081       .  S
O471       Mg478   2.291       .  S
C474        O479   1.271       .  A
C474       C1125   1.472       .  S
O475        C476   1.273       .  A
C476       C1107   1.485       .  S
O481       Mg483   2.125       .  S
O481       Mg489   2.132       .  S
O481        C516   1.236       .  S
C482        O495   1.234       .  S
C482        O519   1.269       .  A
C482        H521   1.081       .  S
Mg483       O512   2.140       .  S
Mg483       O527   2.302       .  S
Mg483       O523   2.228       .  S
Mg483       O494   2.312       .  S
O484       Mg526   2.147       .  S
O484       Mg509   2.149       .  S
O484        C505   1.235       .  S
O485        C516   1.271       .  A
O485       Mg509   2.309       .  S
C486        O488   1.266       .  A
C486        O500   1.271       .  A
C486       C1404   1.466       .  S
O487        C515   1.270       .  A
O487       Mg489   2.300       .  S
O488       Mg520   2.238       .  S
Mg489       O495   2.142       .  S
Mg489       O503   2.213       .  S
Mg489       O491   2.271       .  S
C490        O528   1.269       .  A
C490        O496   1.274       .  A
C490       C1377   1.472       .  S
O491        C498   1.263       .  A
H492        C505   1.081       .  S
C493        O507   1.236       .  S
C493        O508   1.273       .  A
C493        H518   1.081       .  S
O494        C517   1.271       .  A
O495       Mg509   2.127       .  S
O496       Mg526   2.310       .  S
C497        O510   1.272       .  A
C497        O502   1.276       .  A
C497       C1413   1.476       .  S
C498        O525   1.272       .  A
C498       C1422   1.460       .  S
Mg499       O506   2.149       .  S
Mg499       O507   2.141       .  S
Mg499       O500   2.287       .  S
Mg499       O501   2.306       .  S
Mg499       O528   2.257       .  S
O501        C505   1.270       .  A
O502       Mg509   2.326       .  S
O503        C522   1.263       .  A
O504        C524   1.271       .  A
O504       Mg520   2.299       .  S
O506       Mg520   2.136       .  S
O506        C517   1.235       .  S
O507       Mg526   2.152       .  S
O508       Mg520   2.315       .  S
Mg509       O525   2.258       .  S
O510       Mg526   2.251       .  S
H511        C516   1.081       .  S
O512       Mg520   2.134       .  S
O512        C515   1.236       .  S
H513        C515   1.081       .  S
H514        C517   1.081       .  S
O519       Mg526   2.301       .  S
C522        O527   1.271       .  A
C522       C1386   1.463       .  S
O523        C524   1.267       .  A
C524       C1395   1.466       .  S
O529       Mg531   2.145   1_455  S
O529       Mg537   2.141       .  S
O529        C564   1.237       .  S
C530        O543   1.236       .  S
C530        O567   1.271       .  A
C530        H569   1.081       .  S
Mg531       O560   2.141       .  S
Mg531       O575   2.310       .  S
Mg531       O571   2.294       .  S
Mg531       O542   2.315       .  S
O532       Mg574   2.143       .  S
O532       Mg557   2.137       .  S
O532        C553   1.235       .  S
O533        C564   1.272       .  A
O533       Mg557   2.309       .  S
C534        O536   1.267       .  A
C534        O548   1.275       .  A
C534       C1530   1.466       .  S
O535        C563   1.272       .  A
O535       Mg537   2.311   1_655  S
O536       Mg568   2.254       .  S
Mg537       O543   2.133       .  S
Mg537       O551   2.241       .  S
Mg537       O539   2.292       .  S
C538        O576   1.274       .  A
C538        O544   1.274   1_655  A
C538       C1523   1.478       .  S
O539        C546   1.271       .  A
H540        C553   1.081       .  S
C541        O555   1.236       .  S
C541        O556   1.271       .  A
C541        H566   1.081       .  S
O542        C565   1.272       .  A
O543       Mg557   2.134       .  S
O544       Mg574   2.299       .  S
C545        O558   1.270       .  A
C545        O550   1.273       .  A
C545       C1512   1.467       .  S
C546        O573   1.269       .  A
C546       C1503   1.469       .  S
Mg547       O554   2.158       .  S
Mg547       O555   2.143       .  S
Mg547       O548   2.300       .  S
Mg547       O549   2.300   1_655  S
Mg547       O576   2.296       .  S
O549        C553   1.270       .  A
O550       Mg557   2.294       .  S
O551        C570   1.266   1_455  A
O552        C572   1.271       .  A
O552       Mg568   2.281       .  S
O554       Mg568   2.145       .  S
O554        C565   1.236       .  S
O555       Mg574   2.139   1_655  S
O556       Mg568   2.305       .  S
Mg557       O573   2.259       .  S
O558       Mg574   2.257       .  S
H559        C564   1.081       .  S
O560       Mg568   2.146       .  S
O560        C563   1.236       .  S
H561        C563   1.081       .  S
H562        C565   1.081       .  S
O567       Mg574   2.301       .  S
C570        O575   1.276       .  A
C570       C1485   1.468       .  S
O571        C572   1.272       .  A
C572       C1494   1.476       .  S
O577       Mg579   2.135       .  S
O577       Mg585   2.163       .  S
O577        C612   1.235       .  S
C578        O591   1.236   1_556  S
C578        O615   1.270       .  A
C578        H617   1.081       .  S
Mg579       O608   2.153   1_554  S
Mg579       O623   2.290       .  S
Mg579       O619   2.237       .  S
Mg579       O590   2.297       .  S
O580       Mg622   2.157   1_554  S
O580       Mg605   2.139       .  S
O580        C601   1.234       .  S
O581        C612   1.268   1_455  A
O581       Mg605   2.284       .  S
C582        O584   1.272   1_455  A
C582        O596   1.279       .  A
C582       C1053   1.485       .  S
O583        C611   1.270   1_554  A
O583       Mg585   2.299       .  S
O584       Mg616   2.239       .  S
Mg585       O591   2.129       .  S
Mg585       O599   2.251       .  S
Mg585       O587   2.355       .  S
C586        O624   1.276       .  A
C586        O592   1.278       .  A
C586       C1098   1.483       .  S
O587        C594   1.281       .  A
H588        C601   1.081       .  S
C589        O603   1.234   1_655  S
C589        O604   1.268       .  A
C589        H614   1.081       .  S
O590        C613   1.270   1_654  A
O591       Mg605   2.152   1_655  S
O592       Mg622   2.337       .  S
C593        O606   1.276       .  A
C593        O598   1.270   1_556  A
C593       C1089   1.473       .  S
C594        O621   1.270   1_655  A
C594       C1073   1.487       .  S
Mg595       O602   2.150       .  S
Mg595       O603   2.163       .  S
Mg595       O596   2.340       .  S
Mg595       O597   2.287       .  S
Mg595       O624   2.253       .  S
O597        C601   1.267   1_556  A
O598       Mg605   2.274       .  S
O599        C618   1.275       .  A
O600        C620   1.275   1_556  A
O600       Mg616   2.308       .  S
O602       Mg616   2.160   1_455  S
O602        C613   1.236       .  S
O603       Mg622   2.148       .  S
O604       Mg616   2.290       .  S
Mg605       O621   2.232       .  S
O606       Mg622   2.262       .  S
H607        C612   1.081       .  S
O608       Mg616   2.141       .  S
O608        C611   1.235       .  S
H609        C611   1.081       .  S
H610        C613   1.081       .  S
O615       Mg622   2.290   1_655  S
C618        O623   1.272       .  A
C618       C1080   1.473       .  S
O619        C620   1.269       .  A
C620       C1062   1.479   1_554  S
O625       Mg627   2.126       .  S
O625       Mg633   2.152   1_565  S
O625        C660   1.235   1_554  S
C626        O639   1.234   1_554  S
C626        O663   1.267   1_554  A
C626        H665   1.081       .  S
Mg627       O656   2.167       .  S
Mg627       O671   2.290       .  S
Mg627       O667   2.220       .  S
Mg627       O638   2.285       .  S
O628       Mg670   2.158       .  S
O628       Mg653   2.142       .  S
O628        C649   1.236   1_545  S
O629        C660   1.269   1_545  A
O629       Mg653   2.293       .  S
C630        O632   1.272       .  A
C630        O644   1.275   1_554  A
C630       C1278   1.478       .  S
O631        C659   1.268       .  A
O631       Mg633   2.287       .  S
O632       Mg664   2.250       .  S
Mg633       O639   2.131   1_554  S
Mg633       O647   2.230       .  S
Mg633       O635   2.269       .  S
C634        O672   1.270       .  A
C634        O640   1.275   1_565  A
C634       C1269   1.475       .  S
O635        C642   1.269   1_554  A
H636        C649   1.081       .  S
C637        O651   1.235       .  S
C637        O652   1.268   1_546  A
C637        H662   1.081       .  S
O638        C661   1.266   1_554  A
O639       Mg653   2.158       .  S
O640       Mg670   2.296       .  S
C641        O654   1.273       .  A
C641        O646   1.280       .  A
C641       C1296   1.485       .  S
C642        O669   1.277       .  A
C642       C1287   1.473       .  S
Mg643       O650   2.125       .  S
Mg643       O651   2.153   1_565  S
Mg643       O644   2.293       .  S
Mg643       O645   2.294       .  S
Mg643       O672   2.243       .  S
O645        C649   1.270       .  A
O646       Mg653   2.341       .  S
O647        C666   1.268       .  A
O648        C668   1.274       .  A
O648       Mg664   2.297       .  S
O650       Mg664   2.159   1_556  S
O650        C661   1.233       .  S
O651       Mg670   2.137       .  S
O652       Mg664   2.293       .  S
Mg653       O669   2.270       .  S
O654       Mg670   2.243       .  S
H655        C660   1.081       .  S
O656       Mg664   2.134       .  S
O656        C659   1.235   1_565  S
H657        C659   1.081       .  S
H658        C661   1.081       .  S
O663       Mg670   2.287       .  S
C666        O671   1.272   1_545  A
C666       C1305   1.474       .  S
O667        C668   1.269       .  A
C668       C1314   1.473       .  S
O673       Mg675   2.130       .  S
O673       Mg681   2.125       .  S
O673        C708   1.238       .  S
C674        O687   1.232       .  S
C674        O711   1.266       .  A
C674        H713   1.081       .  S
Mg675       O704   2.149       .  S
Mg675       O719   2.315       .  S
Mg675       O715   2.276       .  S
Mg675       O686   2.322       .  S
O676       Mg718   2.152       .  S
O676       Mg701   2.135       .  S
O676        C697   1.236       .  S
O677        C708   1.273       .  A
O677       Mg701   2.310   1_565  S
C678        O680   1.265   1_545  A
C678        O692   1.269       .  A
C678       C1350   1.470       .  S
O679        C707   1.274   1_545  A
O679       Mg681   2.311   1_545  S
O680       Mg712   2.263       .  S
Mg681       O687   2.129   1_565  S
Mg681       O695   2.212       .  S
Mg681       O683   2.274       .  S
C682        O720   1.270       .  A
C682        O688   1.273       .  A
C682       C1368   1.473       .  S
O683        C690   1.263       .  A
H684        C697   1.081       .  S
C685        O699   1.237       .  S
C685        O700   1.274       .  A
C685        H710   1.081       .  S
O686        C709   1.272       .  A
O687       Mg701   2.126       .  S
O688       Mg718   2.286       .  S
C689        O702   1.274       .  A
C689        O694   1.277       .  A
C689       C1323   1.476       .  S
C690        O717   1.271   1_565  A
C690       C1332   1.456       .  S
Mg691       O698   2.169   1_545  S
Mg691       O699   2.138       .  S
Mg691       O692   2.278       .  S
Mg691       O693   2.302       .  S
Mg691       O720   2.270       .  S
O693        C697   1.270       .  A
O694       Mg701   2.326       .  S
O695        C714   1.262       .  A
O696        C716   1.273       .  A
O696       Mg712   2.295       .  S
O698       Mg712   2.137       .  S
O698        C709   1.234       .  S
O699       Mg718   2.155       .  S
O700       Mg712   2.326   1_545  S
Mg701       O717   2.251       .  S
O702       Mg718   2.273       .  S
H703        C708   1.081       .  S
O704       Mg712   2.143       .  S
O704        C707   1.238       .  S
H705        C707   1.081   1_545  S
H706        C709   1.081       .  S
O711       Mg718   2.288       .  S
C714        O719   1.276       .  A
C714       C1341   1.467       .  S
O715        C716   1.270       .  A
C716       C1359   1.476       .  S
O721       Mg723   2.127       .  S
O721       Mg729   2.157       .  S
O721        C756   1.235   1_455  S
C722        O735   1.234       .  S
C722        O759   1.267   1_465  A
C722        H761   1.081       .  S
Mg723       O752   2.163   1_565  S
Mg723       O767   2.308       .  S
Mg723       O763   2.218       .  S
Mg723       O734   2.291       .  S
O724       Mg766   2.166   1_565  S
O724       Mg749   2.132       .  S
O724        C745   1.234       .  S
O725        C756   1.267       .  A
O725       Mg749   2.286       .  S
C726        O728   1.277       .  A
C726        O740   1.272   1_455  A
C726       C1629   1.479       .  S
O727        C755   1.269   1_565  A
O727       Mg729   2.294       .  S
O728       Mg760   2.270       .  S
Mg729       O735   2.127       .  S
Mg729       O743   2.238       .  S
Mg729       O731   2.291       .  S
C730        O768   1.271       .  A
C730        O736   1.277       .  A
C730       C1638   1.480       .  S
O731        C738   1.273   1_455  A
H732        C745   1.081       .  S
C733        O747   1.235   1_455  S
C733        O748   1.270       .  A
C733        H758   1.081       .  S
O734        C757   1.267   1_465  A
O735       Mg749   2.161   1_455  S
O736       Mg766   2.325       .  S
C737        O750   1.276   1_565  A
C737        O742   1.269       .  A
C737       C1602   1.471       .  S
C738        O765   1.268       .  A
C738       C1593   1.474       .  S
Mg739       O746   2.143       .  S
Mg739       O747   2.156       .  S
Mg739       O740   2.290       .  S
Mg739       O741   2.284       .  S
Mg739       O768   2.231       .  S
O741        C745   1.267   1_545  A
O742       Mg749   2.275       .  S
O743        C762   1.270       .  A
O744        C764   1.280       .  A
O744       Mg760   2.347       .  S
O746       Mg760   2.158   1_655  S
O746        C757   1.234       .  S
O747       Mg766   2.147       .  S
O748       Mg760   2.298       .  S
Mg749       O765   2.223       .  S
O750       Mg766   2.260       .  S
H751        C756   1.081   1_455  S
O752       Mg760   2.152       .  S
O752        C755   1.235       .  S
H753        C755   1.081       .  S
H754        C757   1.081       .  S
O759       Mg766   2.285       .  S
C762        O767   1.275       .  A
C762       C1620   1.477       .  S
O763        C764   1.270   1_565  A
C764       C1611   1.484       .  S
C769       C3640   1.481       .  S
C769        C770   1.405       .  A
C769        C774   1.409       .  A
C770        H775   1.085       .  S
C770        C771   1.398       .  A
C771        C772   1.399       .  A
C772        H776   1.084       .  S
C772        C773   1.406       .  A
C773       C3630   1.481       .  S
C773        C774   1.409       .  A
C774        H777   1.083       .  S
C778       C3620   1.496       .  S
C778        C779   1.407       .  A
C778        C783   1.419       .  A
C779        H784   1.085       .  S
C779        C780   1.383       .  A
C780        C781   1.390       .  A
C781        H785   1.084       .  S
C781        C782   1.408       .  A
C782       C3613   1.488       .  S
C782        C783   1.420       .  A
C783        H786   1.082       .  S
C787       C3590   1.478       .  S
C787        C788   1.412       .  A
C787        C792   1.409       .  A
C788        H793   1.084       .  S
C788        C789   1.403       .  A
C789        C790   1.397       .  A
C790        H794   1.084       .  S
C790        C791   1.402       .  A
C791       C3600   1.484       .  S
C791        C792   1.406       .  A
C792        H795   1.083       .  S
C796       C3580   1.510       .  S
C796        C797   1.408       .  A
C796        C801   1.418       .  A
C797        H802   1.081       .  S
C797        C798   1.391       .  A
C798        C799   1.399       .  A
C799        H803   1.084       .  S
C799        C800   1.411       .  A
C800       C3570   1.483       .  S
C800        C801   1.413       .  A
C801        H804   1.079       .  S
C805       C3550   1.486       .  S
C805        C806   1.404       .  A
C805        C810   1.409       .  A
C806        H811   1.084       .  S
C806        C807   1.406       .  A
C807        C808   1.401       .  A
C808        H812   1.084       .  S
C808        C809   1.409       .  A
C809       C3560   1.480       .  S
C809        C810   1.408       .  A
C810        H813   1.083       .  S
C814       C3533   1.485       .  S
C814        C815   1.407       .  A
C814        C819   1.415       .  A
C815        H820   1.084       .  S
C815        C816   1.395       .  A
C816        C817   1.390       .  A
C817        H821   1.085       .  S
C817        C818   1.407       .  A
C818       C3540   1.491       .  S
C818        C819   1.414       .  A
C819        H822   1.083       .  S
C823        C824   1.375       .  D
C823       C3530   1.495       .  S
C823       C3553   1.490       .  S
C824       C3510   1.537       .  S
C824       C3520   1.507       .  S
C825        C826   1.366       .  D
C825       C3583   1.500       .  S
C825       C3593   1.501       .  S
C826       C3490   1.489       .  S
C826       C3500   1.495       .  S
C827       C3470   1.477       .  S
C827        C828   1.404       .  A
C827        C832   1.413       .  A
C828        H833   1.085       .  S
C828        C829   1.391       .  A
C829        C830   1.391       .  A
C830        H834   1.085       .  S
C830        C831   1.405       .  A
C831       C3480   1.490       .  S
C831        C832   1.414       .  A
C832        H835   1.083       .  S
C836       C3460   1.480       .  S
C836        C837   1.406       .  A
C836        C841   1.413       .  A
C837        H842   1.085       .  S
C837        C838   1.396       .  A
C838        C839   1.390       .  A
C839        H843   1.081       .  S
C839        C840   1.411       .  A
C840       C3450   1.508       .  S
C840        C841   1.419       .  A
C841        H844   1.080       .  S
C845       C3440   1.486       .  S
C845        C846   1.403       .  A
C845        C850   1.421       .  A
C846        H851   1.085       .  S
C846        C847   1.391       .  A
C847        C848   1.382       .  A
C848        H852   1.082       .  S
C848        C849   1.409       .  A
C849       C3433   1.509       .  S
C849        C850   1.424       .  A
C850        H853   1.081       .  S
C854       C3410   1.487       .  S
C854        C855   1.405       .  A
C854        C859   1.410       .  A
C855        H860   1.084       .  S
C855        C856   1.395       .  A
C856        C857   1.400       .  A
C857        H861   1.084       .  S
C857        C858   1.409       .  A
C858       C3420   1.477       .  S
C858        C859   1.408       .  A
C859        H862   1.083       .  S
C863       C3400   1.485       .  S
C863        C864   1.405       .  A
C863        C868   1.414       .  A
C864        H869   1.084       .  S
C864        C865   1.397       .  A
C865        C866   1.398       .  A
C866        H870   1.085       .  S
C866        C867   1.405       .  A
C867       C3390   1.484       .  S
C867        C868   1.409       .  A
C868        H871   1.083       .  S
C872       C3380   1.490       .  S
C872        C873   1.407       .  A
C872        C877   1.415       .  A
C873        H878   1.084       .  S
C873        C874   1.392       .  A
C874        C875   1.392       .  A
C875        H879   1.085       .  S
C875        C876   1.406       .  A
C876       C3370   1.484       .  S
C876        C877   1.414       .  A
C877        H880   1.083       .  S
C881        C882   1.364       .  D
C881       C3393   1.489       .  S
C881       C3413   1.488       .  S
C882       C3350   1.488       .  S
C882       C3360   1.490       .  S
C883        C884   1.363       .  D
C883       C3383   1.495       .  S
C883       C3473   1.487       .  S
C884       C3330   1.489       .  S
C884       C3340   1.486       .  S
C885       C3310   1.483       .  S
C885        C886   1.402       .  A
C885        C890   1.413       .  A
C886        H891   1.085       .  S
C886        C887   1.392       .  A
C887        C888   1.391       .  A
C888        H892   1.085       .  S
C888        C889   1.404       .  A
C889       C3320   1.484       .  S
C889        C890   1.417       .  A
C890        H893   1.083       .  S
C894       C3300   1.479       .  S
C894        C895   1.406       .  A
C894        C899   1.410       .  A
C895        H900   1.085       .  S
C895        C896   1.397       .  A
C896        C897   1.394       .  A
C897        H901   1.084       .  S
C897        C898   1.407       .  A
C898       C3290   1.489       .  S
C898        C899   1.413       .  A
C899        H902   1.083       .  S
C903       C3270   1.476       .  S
C903        C904   1.407       .  A
C903        C908   1.410       .  A
C904        H909   1.085       .  S
C904        C905   1.396       .  A
C905        C906   1.390       .  A
C906        H910   1.083       .  S
C906        C907   1.406       .  A
C907       C3283   1.492       .  S
C907        C908   1.412       .  A
C908        H911   1.082       .  S
C912       C3263   1.487       .  S
C912        C913   1.406       .  A
C912        C917   1.407       .  A
C913        H918   1.083       .  S
C913        C914   1.395       .  A
C914        C915   1.399       .  A
C915        H919   1.084       .  S
C915        C916   1.410       .  A
C916       C3250   1.471       .  S
C916        C917   1.404       .  A
C917        H920   1.082       .  S
C921       C3230   1.487       .  S
C921        C922   1.406       .  A
C921        C926   1.418       .  A
C922        H927   1.085       .  S
C922        C923   1.396       .  A
C923        C924   1.393       .  A
C924        H928   1.085       .  S
C924        C925   1.402       .  A
C925       C3240   1.486       .  S
C925        C926   1.414       .  A
C926        H929   1.083       .  S
C930       C3220   1.490       .  S
C930        C931   1.415       .  A
C930        C935   1.406       .  A
C931        H936   1.083       .  S
C931        C932   1.414       .  A
C932       C3210   1.481       .  S
C932        C933   1.406       .  A
C933        H937   1.085       .  S
C933        C934   1.393       .  A
C934        C935   1.386       .  A
C935        H938   1.084       .  S
C939        C940   1.369       .  D
C939       C3213   1.489       .  S
C939       C3233   1.494       .  S
C940       C3190   1.515       .  S
C940       C3203   1.503       .  S
C941        C942   1.361       .  D
C941       C3260   1.481       .  S
C941       C3273   1.487       .  S
C942       C3170   1.500       .  S
C942       C3180   1.485       .  S
C943       C3160   1.486       .  S
C943        C944   1.407       .  A
C943        C948   1.418       .  A
C944        H949   1.084       .  S
C944        C945   1.396       .  A
C945        C946   1.385       .  A
C946        H950   1.082       .  S
C946        C947   1.406       .  A
C947       C3150   1.503       .  S
C947        C948   1.420       .  A
C948        H951   1.082       .  S
C952       C3493   1.487       .  S
C952        C953   1.407       .  A
C952        C957   1.414       .  A
C953        H958   1.084       .  S
C953        C954   1.395   1_556  A
C954        C955   1.392       .  A
C955        H959   1.084       .  S
C955        C956   1.405       .  A
C956       C3140   1.486       .  S
C956        C957   1.414   1_554  A
C957        H960   1.083       .  S
C961       C3503   1.485       .  S
C961        C962   1.403       .  A
C961        C966   1.415       .  A
C962        H967   1.084       .  S
C962        C963   1.395       .  A
C963        C964   1.399       .  A
C964        H968   1.084       .  S
C964        C965   1.405       .  A
C965       C3130   1.488       .  S
C965        C966   1.414       .  A
C966        H969   1.083       .  S
C970       C3113   1.485       .  S
C970        C971   1.403       .  A
C970        C975   1.409       .  A
C971        H976   1.084       .  S
C971        C972   1.402       .  A
C972        C973   1.404   1_556  A
C973        H977   1.084       .  S
C973        C974   1.408       .  A
C974       C3120   1.480       .  S
C974        C975   1.408   1_554  A
C975        H978   1.083       .  S
C979       C3090   1.486       .  S
C979        C980   1.407       .  A
C979        C984   1.414       .  A
C980        H985   1.084       .  S
C980        C981   1.397       .  A
C981        C982   1.392       .  A
C982        H986   1.084       .  S
C982        C983   1.404       .  A
C983       C3100   1.487       .  S
C983        C984   1.414       .  A
C984        H987   1.083       .  S
C988       C3080   1.483       .  S
C988        C989   1.403       .  A
C988        C993   1.412       .  A
C989        H994   1.084       .  S
C989        C990   1.388       .  A
C990        C991   1.393       .  A
C991        H995   1.085       .  S
C991        C992   1.406       .  A
C992       C3070   1.479       .  S
C992        C993   1.413       .  A
C993        H996   1.083       .  S
C997       C3060   1.509       .  S
C997        C998   1.421       .  A
C997       C1002   1.403       .  A
C998       H1003   1.081       .  S
C998        C999   1.421   1_655  A
C999       C3050   1.485       .  S
C999       C1000   1.410       .  A
C1000      H1004   1.085       .  S
C1000      C1001   1.388       .  A
C1001      C1002   1.385   1_455  A
C1002      H1005   1.081       .  S
C1006      C3040   1.485       .  S
C1006      C1007   1.414       .  A
C1006      C1011   1.411       .  A
C1007      H1012   1.084       .  S
C1007      C1008   1.403       .  A
C1008      C1009   1.397       .  A
C1009      H1013   1.084       .  S
C1009      C1010   1.404       .  A
C1010      C3030   1.487       .  S
C1010      C1011   1.409       .  A
C1011      H1014   1.083       .  S
C1015      C3010   1.484       .  S
C1015      C1016   1.400       .  A
C1015      C1020   1.413       .  A
C1016      H1021   1.085       .  S
C1016      C1017   1.392       .  A
C1017      C1018   1.397       .  A
C1018      H1022   1.084       .  S
C1018      C1019   1.409       .  A
C1019      C3023   1.487       .  S
C1019      C1020   1.415       .  A
C1020      H1023   1.083       .  S
C1024      C3000   1.478       .  S
C1024      C1025   1.411       .  A
C1024      C1029   1.408   1_455  A
C1025      H1030   1.084       .  S
C1025      C1026   1.404   1_455  A
C1026      C1027   1.398       .  A
C1027      H1031   1.084       .  S
C1027      C1028   1.403       .  A
C1028      C3363   1.484       .  S
C1028      C1029   1.407       .  A
C1029      H1032   1.083       .  S
C1033      C2990   1.483       .  S
C1033      C1034   1.405       .  A
C1033      C1038   1.411       .  A
C1034      H1039   1.084       .  S
C1034      C1035   1.397       .  A
C1035      C1036   1.402       .  A
C1036      H1040   1.084       .  S
C1036      C1037   1.407       .  A
C1037      C3353   1.485       .  S
C1037      C1038   1.411       .  A
C1038      H1041   1.083       .  S
C1042      C2983   1.489       .  S
C1042      C1043   1.405       .  A
C1042      C1047   1.420       .  A
C1043      H1048   1.084       .  S
C1043      C1044   1.393       .  A
C1044      C1045   1.382       .  A
C1045      H1049   1.082       .  S
C1045      C1046   1.408       .  A
C1046      C2970   1.509       .  S
C1046      C1047   1.425       .  A
C1047      H1050   1.080       .  S
C1051      C2950   1.475       .  S
C1051      C1052   1.411       .  A
C1051      C1056   1.406   1_455  A
C1052      H1057   1.084       .  S
C1052      C1053   1.403       .  A
C1053      C1054   1.400   1_455  A
C1054      H1058   1.084       .  S
C1054      C1055   1.404       .  A
C1055      C2960   1.484       .  S
C1055      C1056   1.405       .  A
C1056      H1059   1.083       .  S
C1060      C2940   1.485       .  S
C1060      C1061   1.404       .  A
C1060      C1065   1.412   1_554  A
C1061      H1066   1.085       .  S
C1061      C1062   1.398   1_554  A
C1062      C1063   1.399       .  A
C1063      H1067   1.085       .  S
C1063      C1064   1.406       .  A
C1064      C2930   1.483       .  S
C1064      C1065   1.412       .  A
C1065      H1068   1.083       .  S
C1069      C2920   1.480       .  S
C1069      C1070   1.408   1_655  A
C1069      C1074   1.410       .  A
C1070      H1075   1.083       .  S
C1070      C1071   1.408       .  A
C1071      C2910   1.486       .  S
C1071      C1072   1.403       .  A
C1072      H1076   1.084       .  S
C1072      C1073   1.406   1_455  A
C1073      C1074   1.403       .  A
C1074      H1077   1.084       .  S
C1078      C2890   1.501       .  S
C1078      C1079   1.408       .  A
C1078      C1083   1.419       .  A
C1079      H1084   1.083       .  S
C1079      C1080   1.386       .  A
C1080      C1081   1.390       .  A
C1081      H1085   1.084       .  S
C1081      C1082   1.406       .  A
C1082      C2900   1.483       .  S
C1082      C1083   1.417       .  A
C1083      H1086   1.082       .  S
C1087      C2870   1.498       .  S
C1087      C1088   1.408       .  A
C1087      C1092   1.418       .  A
C1088      H1093   1.084       .  S
C1088      C1089   1.385       .  A
C1089      C1090   1.393   1_556  A
C1090      H1094   1.084       .  S
C1090      C1091   1.406       .  A
C1091      C2883   1.485       .  S
C1091      C1092   1.417   1_554  A
C1092      H1095   1.082       .  S
C1096      C2853   1.482       .  S
C1096      C1097   1.411       .  A
C1096      C1101   1.415       .  A
C1097      H1102   1.084       .  S
C1097      C1098   1.400       .  A
C1098      C1099   1.393       .  A
C1099      H1103   1.082       .  S
C1099      C1100   1.406       .  A
C1100      C2860   1.506       .  S
C1100      C1101   1.416       .  A
C1101      H1104   1.082       .  S
C1105      C2840   1.480       .  S
C1105      C1106   1.411       .  A
C1105      C1110   1.407       .  A
C1106      H1111   1.084       .  S
C1106      C1107   1.401       .  A
C1107      C1108   1.398       .  A
C1108      H1112   1.083       .  S
C1108      C1109   1.407       .  A
C1109      C2833   1.489       .  S
C1109      C1110   1.409       .  A
C1110      H1113   1.083       .  S
C1114      C2810   1.489       .  S
C1114      C1115   1.408       .  A
C1114      C1119   1.409       .  A
C1115      H1120   1.084       .  S
C1115      C1116   1.407       .  A
C1116      C1117   1.404       .  A
C1117      H1121   1.084       .  S
C1117      C1118   1.412       .  A
C1118      C2823   1.487       .  S
C1118      C1119   1.408       .  A
C1119      H1122   1.083       .  S
C1123      C2790   1.477       .  S
C1123      C1124   1.402       .  A
C1123      C1128   1.407       .  A
C1124      H1129   1.084       .  S
C1124      C1125   1.388       .  A
C1125      C1126   1.397       .  A
C1126      H1130   1.084       .  S
C1126      C1127   1.407       .  A
C1127      C2800   1.474       .  S
C1127      C1128   1.408       .  A
C1128      H1131   1.083       .  S
C1132      C2780   1.482       .  S
C1132      C1133   1.407       .  A
C1132      C1137   1.424       .  A
C1133      H1138   1.084       .  S
C1133      C1134   1.389       .  A
C1134      C1135   1.386       .  A
C1135      H1139   1.084       .  S
C1135      C1136   1.402       .  A
C1136      C2770   1.502       .  S
C1136      C1137   1.418       .  A
C1137      H1140   1.082       .  S
C1141      C2750   1.489       .  S
C1141      C1142   1.407       .  A
C1141      C1146   1.418       .  A
C1142      H1147   1.084       .  S
C1142      C1143   1.393       .  A
C1143      C1144   1.386       .  A
C1144      H1148   1.085       .  S
C1144      C1145   1.403       .  A
C1145      C2760   1.486       .  S
C1145      C1146   1.417       .  A
C1146      H1149   1.083       .  S
C1150      C2740   1.487       .  S
C1150      C1151   1.405       .  A
C1150      C1155   1.414       .  A
C1151      H1156   1.085       .  S
C1151      C1152   1.389       .  A
C1152      C1153   1.400       .  A
C1153      H1157   1.084       .  S
C1153      C1154   1.407       .  A
C1154      C2733   1.487       .  S
C1154      C1155   1.416       .  A
C1155      H1158   1.083       .  S
C1159      C2720   1.488       .  S
C1159      C1160   1.405       .  A
C1159      C1164   1.414       .  A
C1160      H1165   1.084       .  S
C1160      C1161   1.400       .  A
C1161      C1162   1.395       .  A
C1162      H1166   1.085       .  S
C1162      C1163   1.401       .  A
C1163      C2710   1.484       .  S
C1163      C1164   1.414       .  A
C1164      H1167   1.083       .  S
C1168      C2703   1.481       .  S
C1168      C1169   1.402       .  A
C1168      C1173   1.410       .  A
C1169      H1174   1.085       .  S
C1169      C1170   1.390       .  A
C1170      C1171   1.398       .  A
C1171      H1175   1.084       .  S
C1171      C1172   1.406       .  A
C1172      C2690   1.480       .  S
C1172      C1173   1.414       .  A
C1173      H1176   1.083       .  S
C1177      C2680   1.483       .  S
C1177      C1178   1.405       .  A
C1177      C1182   1.411       .  A
C1178      H1183   1.085       .  S
C1178      C1179   1.389       .  A
C1179      C1180   1.402       .  A
C1180      H1184   1.084       .  S
C1180      C1181   1.409       .  A
C1181      C2670   1.486       .  S
C1181      C1182   1.413       .  A
C1182      H1185   1.083       .  S
C1186      C2660   1.484       .  S
C1186      C1187   1.408       .  A
C1186      C1191   1.414       .  A
C1187      H1192   1.084       .  S
C1187      C1188   1.396       .  A
C1188      C1189   1.390       .  A
C1189      H1193   1.084       .  S
C1189      C1190   1.404       .  A
C1190      C2650   1.486       .  S
C1190      C1191   1.412       .  A
C1191      H1194   1.083       .  S
C1195      C2630   1.487       .  S
C1195      C1196   1.406       .  A
C1195      C1200   1.416       .  A
C1196      H1201   1.084       .  S
C1196      C1197   1.398       .  A
C1197      C1198   1.400       .  A
C1198      H1202   1.084       .  S
C1198      C1199   1.406       .  A
C1199      C2640   1.494       .  S
C1199      C1200   1.413       .  A
C1200      H1203   1.083       .  S
C1204      C2610   1.487       .  S
C1204      C1205   1.404       .  A
C1204      C1209   1.408       .  A
C1205      H1210   1.084       .  S
C1205      C1206   1.399       .  A
C1206      C1207   1.402       .  A
C1207      H1211   1.084       .  S
C1207      C1208   1.412       .  A
C1208      C2620   1.481       .  S
C1208      C1209   1.408       .  A
C1209      H1212   1.083       .  S
C1213      C2600   1.482       .  S
C1213      C1214   1.406       .  A
C1213      C1218   1.417   1_554  A
C1214      H1219   1.085       .  S
C1214      C1215   1.386       .  A
C1215      C1216   1.390   1_554  A
C1216      H1220   1.084       .  S
C1216      C1217   1.406       .  A
C1217      C3183   1.496       .  S
C1217      C1218   1.417       .  A
C1218      H1221   1.082       .  S
C1222      C2593   1.477       .  S
C1222      C1223   1.403       .  A
C1222      C1227   1.407       .  A
C1223      H1228   1.085       .  S
C1223      C1224   1.391       .  A
C1224      C1225   1.395       .  A
C1225      H1229   1.085       .  S
C1225      C1226   1.408       .  A
C1226      C3173   1.472       .  S
C1226      C1227   1.408       .  A
C1227      H1230   1.083       .  S
C1231      C2580   1.483       .  S
C1231      C1232   1.406       .  A
C1231      C1236   1.416       .  A
C1232      H1237   1.085       .  S
C1232      C1233   1.392       .  A
C1233      C1234   1.386       .  A
C1234      H1238   1.084       .  S
C1234      C1235   1.405       .  A
C1235      C2573   1.489       .  S
C1235      C1236   1.416       .  A
C1236      H1239   1.082       .  S
C1240      C2550   1.485       .  S
C1240      C1241   1.404       .  A
C1240      C1245   1.411       .  A
C1241      H1246   1.085       .  S
C1241      C1242   1.391   1_556  A
C1242      C1243   1.401       .  A
C1243      H1247   1.084       .  S
C1243      C1244   1.408       .  A
C1244      C2560   1.484       .  S
C1244      C1245   1.412   1_554  A
C1245      H1248   1.083       .  S
C1249      C2540   1.479       .  S
C1249      C1250   1.405       .  A
C1249      C1254   1.410       .  A
C1250      H1255   1.085       .  S
C1250      C1251   1.394       .  A
C1251      C1252   1.397       .  A
C1252      H1256   1.085       .  S
C1252      C1253   1.404       .  A
C1253      C2530   1.481       .  S
C1253      C1254   1.410       .  A
C1254      H1257   1.083       .  S
C1258      C2520   1.487       .  S
C1258      C1259   1.402       .  A
C1258      C1263   1.414       .  A
C1259      H1264   1.085       .  S
C1259      C1260   1.394       .  A
C1260      C1261   1.394       .  A
C1261      H1265   1.084       .  S
C1261      C1262   1.406       .  A
C1262      C2510   1.486       .  S
C1262      C1263   1.417       .  A
C1263      H1266   1.083       .  S
C1267      C2500   1.477       .  S
C1267      C1268   1.406       .  A
C1267      C1272   1.409   1_565  A
C1268      H1273   1.085       .  S
C1268      C1269   1.395       .  A
C1269      C1270   1.394   1_565  A
C1270      H1274   1.084       .  S
C1270      C1271   1.406       .  A
C1271      C2490   1.482       .  S
C1271      C1272   1.409       .  A
C1272      H1275   1.083       .  S
C1276      C2470   1.493       .  S
C1276      C1277   1.406       .  A
C1276      C1281   1.413       .  A
C1277      H1282   1.084       .  S
C1277      C1278   1.396   1_556  A
C1278      C1279   1.396       .  A
C1279      H1283   1.084       .  S
C1279      C1280   1.406       .  A
C1280      C2480   1.485       .  S
C1280      C1281   1.416   1_554  A
C1281      H1284   1.083       .  S
C1285      C2460   1.501       .  S
C1285      C1286   1.406       .  A
C1285      C1290   1.422       .  A
C1286      H1291   1.083       .  S
C1286      C1287   1.384       .  A
C1287      C1288   1.392   1_556  A
C1288      H1292   1.085       .  S
C1288      C1289   1.406       .  A
C1289      C2450   1.488       .  S
C1289      C1290   1.419   1_554  A
C1290      H1293   1.082       .  S
C1294      C2430   1.472       .  S
C1294      C1295   1.410       .  A
C1294      C1299   1.404       .  A
C1295      H1300   1.084       .  S
C1295      C1296   1.403       .  A
C1296      C1297   1.403       .  A
C1297      H1301   1.084       .  S
C1297      C1298   1.403       .  A
C1298      C2443   1.476       .  S
C1298      C1299   1.402       .  A
C1299      H1302   1.084       .  S
C1303      C2410   1.482       .  S
C1303      C1304   1.406       .  A
C1303      C1308   1.412   1_565  A
C1304      H1309   1.084       .  S
C1304      C1305   1.397   1_565  A
C1305      C1306   1.393       .  A
C1306      H1310   1.085       .  S
C1306      C1307   1.403       .  A
C1307      C2423   1.481       .  S
C1307      C1308   1.411       .  A
C1308      H1311   1.083       .  S
C1312      C2390   1.484       .  S
C1312      C1313   1.403       .  A
C1312      C1317   1.412       .  A
C1313      H1318   1.084       .  S
C1313      C1314   1.391       .  A
C1314      C1315   1.393       .  A
C1315      H1319   1.084       .  S
C1315      C1316   1.407       .  A
C1316      C2400   1.483       .  S
C1316      C1317   1.414       .  A
C1317      H1320   1.083       .  S
C1321      C2370   1.477       .  S
C1321      C1322   1.405       .  A
C1321      C1326   1.406       .  A
C1322      H1327   1.085       .  S
C1322      C1323   1.397       .  A
C1323      C1324   1.399       .  A
C1324      H1328   1.084       .  S
C1324      C1325   1.413       .  A
C1325      C2380   1.482       .  S
C1325      C1326   1.407       .  A
C1326      H1329   1.083       .  S
C1330      C2350   1.482       .  S
C1330      C1331   1.409       .  A
C1330      C1335   1.425       .  A
C1331      H1336   1.084       .  S
C1331      C1332   1.388       .  A
C1332      C1333   1.380   1_565  A
C1333      H1337   1.085       .  S
C1333      C1334   1.400       .  A
C1334      C2363   1.501       .  S
C1334      C1335   1.417   1_545  A
C1335      H1338   1.082   1_565  S
C1339      C2330   1.495       .  S
C1339      C1340   1.408       .  A
C1339      C1344   1.418       .  A
C1340      H1345   1.084       .  S
C1340      C1341   1.382       .  A
C1341      C1342   1.391       .  A
C1342      H1346   1.085       .  S
C1342      C1343   1.405       .  A
C1343      C2340   1.485       .  S
C1343      C1344   1.416       .  A
C1344      H1347   1.082       .  S
C1348      C2320   1.488       .  S
C1348      C1349   1.406       .  A
C1348      C1353   1.412       .  A
C1349      H1354   1.084       .  S
C1349      C1350   1.388       .  A
C1350      C1351   1.398   1_545  A
C1351      H1355   1.085       .  S
C1351      C1352   1.407       .  A
C1352      C3333   1.478       .  S
C1352      C1353   1.410   1_565  A
C1353      H1356   1.082       .  S
C1357      C2310   1.476       .  S
C1357      C1358   1.409       .  A
C1357      C1362   1.407       .  A
C1358      H1363   1.083       .  S
C1358      C1359   1.398       .  A
C1359      C1360   1.394       .  A
C1360      H1364   1.084       .  S
C1360      C1361   1.406       .  A
C1361      C3343   1.485       .  S
C1361      C1362   1.409       .  A
C1362      H1365   1.083       .  S
C1366      C2290   1.480       .  S
C1366      C1367   1.408       .  A
C1366      C1371   1.410       .  A
C1367      H1372   1.085       .  S
C1367      C1368   1.399       .  A
C1368      C1369   1.391       .  A
C1369      H1373   1.084       .  S
C1369      C1370   1.405       .  A
C1370      C2303   1.487       .  S
C1370      C1371   1.411       .  A
C1371      H1374   1.083       .  S
C1375      C2270   1.481       .  S
C1375      C1376   1.405       .  A
C1375      C1380   1.408       .  A
C1376      H1381   1.085       .  S
C1376      C1377   1.400       .  A
C1377      C1378   1.395       .  A
C1378      H1382   1.085       .  S
C1378      C1379   1.406       .  A
C1379      C2280   1.479       .  S
C1379      C1380   1.410       .  A
C1380      H1383   1.083       .  S
C1384      C2250   1.482       .  S
C1384      C1385   1.406       .  A
C1384      C1389   1.418       .  A
C1385      H1390   1.085       .  S
C1385      C1386   1.387       .  A
C1386      C1387   1.391       .  A
C1387      H1391   1.085       .  S
C1387      C1388   1.403       .  A
C1388      C2263   1.490       .  S
C1388      C1389   1.416       .  A
C1389      H1392   1.083       .  S
C1393      C2230   1.482       .  S
C1393      C1394   1.403       .  A
C1393      C1398   1.413       .  A
C1394      H1399   1.085       .  S
C1394      C1395   1.391       .  A
C1395      C1396   1.390       .  A
C1396      H1400   1.085       .  S
C1396      C1397   1.406       .  A
C1397      C2240   1.480       .  S
C1397      C1398   1.414       .  A
C1398      H1401   1.083       .  S
C1402      C2220   1.489       .  S
C1402      C1403   1.407       .  A
C1402      C1407   1.416       .  A
C1403      H1408   1.084       .  S
C1403      C1404   1.386       .  A
C1404      C1405   1.391       .  A
C1405      H1409   1.085       .  S
C1405      C1406   1.406       .  A
C1406      C2210   1.485       .  S
C1406      C1407   1.414       .  A
C1407      H1410   1.082       .  S
C1411      C2200   1.479       .  S
C1411      C1412   1.412       .  A
C1411      C1416   1.408       .  A
C1412      H1417   1.084       .  S
C1412      C1413   1.397       .  A
C1413      C1414   1.395       .  A
C1414      H1418   1.085       .  S
C1414      C1415   1.405       .  A
C1415      C2190   1.484       .  S
C1415      C1416   1.408       .  A
C1416      H1419   1.083       .  S
C1420      C2170   1.498       .  S
C1420      C1421   1.401       .  A
C1420      C1425   1.416       .  A
C1421      H1426   1.085       .  S
C1421      C1422   1.380       .  A
C1422      C1423   1.388       .  A
C1423      H1427   1.084       .  S
C1423      C1424   1.411       .  A
C1424      C2183   1.480       .  S
C1424      C1425   1.421       .  A
C1425      H1428   1.082       .  S
C1429      C2160   1.478       .  S
C1429      C1430   1.411       .  A
C1429      C1434   1.406       .  A
C1430      H1435   1.084       .  S
C1430      C1431   1.404       .  A
C1431      C1432   1.401       .  A
C1432      H1436   1.085       .  S
C1432      C1433   1.402       .  A
C1433      C2150   1.479       .  S
C1433      C1434   1.405       .  A
C1434      H1437   1.083       .  S
C1438      C2143   1.483       .  S
C1438      C1439   1.405       .  A
C1438      C1443   1.416       .  A
C1439      H1444   1.084       .  S
C1439      C1440   1.390       .  A
C1440      C1441   1.392       .  A
C1441      H1445   1.074       .  S
C1441      C1442   1.414       .  A
C1442      C2133   1.531       .  S
C1442      C1443   1.426       .  A
C1443      H1446   1.075       .  S
C1447      C2120   1.483       .  S
C1447      C1448   1.404       .  A
C1447      C1452   1.405       .  A
C1448      H1453   1.084       .  S
C1448      C1449   1.400       .  A
C1449      C1450   1.401       .  A
C1450      H1454   1.084       .  S
C1450      C1451   1.408       .  A
C1451      C2110   1.472       .  S
C1451      C1452   1.405       .  A
C1452      H1455   1.083       .  S
C1456      C2090   1.485       .  S
C1456      C1457   1.405       .  A
C1456      C1461   1.412       .  A
C1457      H1462   1.085       .  S
C1457      C1458   1.391       .  A
C1458      C1459   1.397       .  A
C1459      H1463   1.084       .  S
C1459      C1460   1.408       .  A
C1460      C2103   1.485       .  S
C1460      C1461   1.414       .  A
C1461      H1464   1.083       .  S
C1465      C2070   1.500       .  S
C1465      C1466   1.406       .  A
C1465      C1470   1.417       .  A
C1466      H1471   1.084       .  S
C1466      C1467   1.385       .  A
C1467      C1468   1.397       .  A
C1468      H1472   1.084       .  S
C1468      C1469   1.406       .  A
C1469      C2083   1.482       .  S
C1469      C1470   1.418       .  A
C1470      H1473   1.082       .  S
C1474      C2060   1.480       .  S
C1474      C1475   1.406       .  A
C1474      C1479   1.410       .  A
C1475      H1480   1.085       .  S
C1475      C1476   1.395       .  A
C1476      C1477   1.393       .  A
C1477      H1481   1.084       .  S
C1477      C1478   1.405       .  A
C1478      C2050   1.485       .  S
C1478      C1479   1.412       .  A
C1479      H1482   1.083       .  S
C1483      C2040   1.480       .  S
C1483      C1484   1.405       .  A
C1483      C1488   1.414   1_455  A
C1484      H1489   1.085       .  S
C1484      C1485   1.393   1_455  A
C1485      C1486   1.387       .  A
C1486      H1490   1.085       .  S
C1486      C1487   1.406       .  A
C1487      C3193   1.489       .  S
C1487      C1488   1.414       .  A
C1488      H1491   1.083       .  S
C1492      C2030   1.487       .  S
C1492      C1493   1.406       .  A
C1492      C1497   1.410       .  A
C1493      H1498   1.085       .  S
C1493      C1494   1.398       .  A
C1494      C1495   1.399       .  A
C1495      H1499   1.084       .  S
C1495      C1496   1.409       .  A
C1496      C3200   1.480       .  S
C1496      C1497   1.409       .  A
C1497      H1500   1.083       .  S
C1501      C2010   1.481       .  S
C1501      C1502   1.403       .  A
C1501      C1506   1.410       .  A
C1502      H1507   1.085       .  S
C1502      C1503   1.393       .  A
C1503      C1504   1.396       .  A
C1504      H1508   1.085       .  S
C1504      C1505   1.408       .  A
C1505      C2020   1.484       .  S
C1505      C1506   1.413       .  A
C1506      H1509   1.083       .  S
C1510      C2000   1.490       .  S
C1510      C1511   1.407       .  A
C1510      C1515   1.420       .  A
C1511      H1516   1.084       .  S
C1511      C1512   1.394       .  A
C1512      C1513   1.392       .  A
C1513      H1517   1.085       .  S
C1513      C1514   1.404       .  A
C1514      C1993   1.490       .  S
C1514      C1515   1.415       .  A
C1515      H1518   1.083       .  S
C1519      C1970   1.473       .  S
C1519      C1520   1.401       .  A
C1519      C1524   1.408       .  A
C1520      H1525   1.084   1_655  S
C1520      C1521   1.404   1_655  A
C1521      C1980   1.477       .  S
C1521      C1522   1.407       .  A
C1522      H1526   1.085       .  S
C1522      C1523   1.401   1_455  A
C1523      C1524   1.401       .  A
C1524      H1527   1.084       .  S
C1528      C1950   1.490       .  S
C1528      C1529   1.406       .  A
C1528      C1533   1.413       .  A
C1529      H1534   1.084       .  S
C1529      C1530   1.387       .  A
C1530      C1531   1.396       .  A
C1531      H1535   1.085       .  S
C1531      C1532   1.406       .  A
C1532      C1960   1.479       .  S
C1532      C1533   1.413       .  A
C1533      H1536   1.083       .  S
C1537      C1940   1.487       .  S
C1537      C1538   1.405       .  A
C1537      C1542   1.413       .  A
C1538      H1543   1.084       .  S
C1538      C1539   1.399       .  A
C1539      C1540   1.391       .  A
C1540      H1544   1.085       .  S
C1540      C1541   1.403       .  A
C1541      C1933   1.478       .  S
C1541      C1542   1.412       .  A
C1542      H1545   1.083       .  S
C1546      C3513   1.499       .  S
C1546      C1547   1.405       .  A
C1546      C1551   1.420       .  A
C1547      H1552   1.084       .  S
C1547      C1548   1.387   1_565  A
C1548      C1549   1.386       .  A
C1549      H1553   1.085       .  S
C1549      C1550   1.406       .  A
C1550      C1920   1.486       .  S
C1550      C1551   1.422   1_545  A
C1551      H1554   1.082       .  S
C1555      C3523   1.492       .  S
C1555      C1556   1.415       .  A
C1555      C1560   1.422       .  A
C1556      H1561   1.083       .  S
C1556      C1557   1.390       .  A
C1557      C1558   1.387       .  A
C1558      H1562   1.079       .  S
C1558      C1559   1.403       .  A
C1559      C1910   1.514       .  S
C1559      C1560   1.421       .  A
C1560      H1563   1.081       .  S
C1564      C1890   1.499       .  S
C1564      C1565   1.407       .  A
C1564      C1569   1.422   1_565  A
C1565      H1570   1.084       .  S
C1565      C1566   1.381   1_565  A
C1566      C1567   1.395       .  A
C1567      H1571   1.084       .  S
C1567      C1568   1.408       .  A
C1568      C1903   1.493       .  S
C1568      C1569   1.422       .  A
C1569      H1572   1.082       .  S
C1573      C1870   1.479       .  S
C1573      C1574   1.411       .  A
C1573      C1578   1.401       .  A
C1574      H1579   1.084       .  S
C1574      C1575   1.409       .  A
C1575      C1576   1.409       .  A
C1576      H1580   1.084       .  S
C1576      C1577   1.409       .  A
C1577      C1880   1.479       .  S
C1577      C1578   1.401       .  A
C1578      H1581   1.084       .  S
C1582      C1863   1.482       .  S
C1582      C1583   1.402       .  A
C1582      C1587   1.413       .  A
C1583      H1588   1.085       .  S
C1583      C1584   1.387       .  A
C1584      C1585   1.397       .  A
C1585      H1589   1.085       .  S
C1585      C1586   1.404       .  A
C1586      C1850   1.481       .  S
C1586      C1587   1.415       .  A
C1587      H1590   1.083       .  S
C1591      C1830   1.484       .  S
C1591      C1592   1.405       .  A
C1591      C1596   1.414   1_455  A
C1592      H1597   1.085       .  S
C1592      C1593   1.394   1_455  A
C1593      C1594   1.393       .  A
C1594      H1598   1.084       .  S
C1594      C1595   1.405       .  A
C1595      C1840   1.489       .  S
C1595      C1596   1.415       .  A
C1596      H1599   1.083   1_655  S
C1600      C1820   1.510       .  S
C1600      C1601   1.406       .  A
C1600      C1605   1.424       .  A
C1601      H1606   1.083       .  S
C1601      C1602   1.384   1_545  A
C1602      C1603   1.394       .  A
C1603      H1607   1.084       .  S
C1603      C1604   1.406       .  A
C1604      C1810   1.490       .  S
C1604      C1605   1.424   1_565  A
C1605      H1608   1.081       .  S
C1609      C1803   1.490       .  S
C1609      C1610   1.404       .  A
C1609      C1614   1.408       .  A
C1610      H1615   1.083       .  S
C1610      C1611   1.398   1_565  A
C1611      C1612   1.399       .  A
C1612      H1616   1.084       .  S
C1612      C1613   1.412       .  A
C1613      C1790   1.477       .  S
C1613      C1614   1.408   1_545  A
C1614      H1617   1.083       .  S
C1618      C1770   1.485       .  S
C1618      C1619   1.406       .  A
C1618      C1623   1.411       .  A
C1619      H1624   1.084       .  S
C1619      C1620   1.400       .  A
C1620      C1621   1.398       .  A
C1621      H1625   1.084       .  S
C1621      C1622   1.404       .  A
C1622      C1783   1.488       .  S
C1622      C1623   1.413       .  A
C1623      H1626   1.083       .  S
C1627      C1750   1.480       .  S
C1627      C1628   1.408       .  A
C1627      C1632   1.411   1_655  A
C1628      H1633   1.084       .  S
C1628      C1629   1.400   1_655  A
C1629      C1630   1.390       .  A
C1630      H1634   1.085       .  S
C1630      C1631   1.406       .  A
C1631      C1760   1.484       .  S
C1631      C1632   1.409       .  A
C1632      H1635   1.083       .  S
C1636      C1730   1.480       .  S
C1636      C1637   1.402       .  A
C1636      C1641   1.405       .  A
C1637      H1642   1.084       .  S
C1637      C1638   1.397       .  A
C1638      C1639   1.401       .  A
C1639      H1643   1.084       .  S
C1639      C1640   1.409       .  A
C1640      C1740   1.473       .  S
C1640      C1641   1.407       .  A
C1641      H1644   1.083       .  S
C1645      C1646   1.372       .  D
C1645      C2053   1.487       .  S
C1645      C2080   1.489       .  S
C1646      C1763   1.520       .  S
C1646      C1793   1.508       .  S
C1647      C1648   1.365       .  D
C1647      C1883   1.502       .  S
C1647      C1913   1.507       .  S
C1648      C1780   1.491       .  S
C1648      C1833   1.490       .  S
C1649      C1650   1.362       .  D
C1649      C1963   1.486       .  S
C1649      C2033   1.489       .  S
C1650      C1743   1.504       .  S
C1650      C1823   1.501       .  S
C1651      C1652   1.366       .  D
C1651      C1983   1.485       .  S
C1651      C1990   1.497       .  S
C1652      C1900   1.497       .  S
C1652      C1930   1.491       .  S
C1653      C1654   1.365       .  D
C1653      C2113   1.498       .  S
C1653      C2130   1.492       .  S
C1654      C1853   1.493       .  S
C1654      C1923   1.491       .  S
C1655      C1656   1.366       .  D
C1655      C2433   1.504       .  S
C1655      C2463   1.500       .  S
C1656      C1860   1.489       .  S
C1656      C1943   1.489       .  S
C1657      C1658   1.367       .  D
C1657      C2850   1.505       .  S
C1657      C2873   1.504       .  S
C1658      C2003   1.498       .  S
C1658      C2013   1.486       .  S
C1659      C1660   1.361       .  D
C1659      C2100   1.489       .  S
C1659      C2153   1.488       .  S
C1660      C2023   1.489       .  S
C1660      C2043   1.487       .  S
C1661      C1662   1.373       .  D
C1661      C2093   1.524       .  S
C1661      C2140   1.503       .  S
C1662      C2633   1.491       .  S
C1662      C2663   1.489       .  S
C1663      C1664   1.365       .  D
C1663      C2233   1.489       .  S
C1663      C2253   1.493       .  S
C1664      C2063   1.489       .  S
C1664      C2123   1.489       .  S
C1665      C1666   1.368       .  D
C1665      C2753   1.490       .  S
C1665      C2783   1.496       .  S
C1666      C2073   1.505       .  S
C1666      C2163   1.504       .  S
C1667      C1668   1.368       .  D
C1667      C2293   1.493       .  S
C1667      C2323   1.486       .  S
C1668      C2213   1.486       .  S
C1668      C2243   1.500       .  S
C1669      C1670   1.365       .  D
C1669      C2180   1.492       .  S
C1669      C2260   1.494       .  S
C1670      C2420   1.492       .  S
C1670      C2453   1.494       .  S
C1671      C1672   1.362       .  D
C1671      C2523   1.490       .  S
C1671      C2603   1.490       .  S
C1672      C2193   1.487       .  S
C1672      C2283   1.487       .  S
C1673      C1674   1.365       .  D
C1673      C2673   1.488       .  S
C1673      C2700   1.494       .  S
C1674      C2223   1.488       .  S
C1674      C2273   1.490       .  S
C1675      C1676   1.371       .  D
C1675      C2793   1.482       .  S
C1675      C2813   1.489       .  S
C1676      C2173   1.517       .  S
C1676      C2203   1.515       .  S
C1677      C1678   1.374       .  D
C1677      C2563   1.489       .  S
C1677      C2570   1.491       .  S
C1678      C2360   1.531       .  S
C1678      C2383   1.511       .  S
C1679      C1680   1.361       .  D
C1679      C2543   1.492       .  S
C1679      C2590   1.481       .  S
C1680      C2440   1.492       .  S
C1680      C2493   1.482       .  S
C1681      C1682   1.367       .  D
C1681      C2403   1.486       .  S
C1681      C2483   1.494       .  S
C1682      C2313   1.505       .  S
C1682      C2333   1.504       .  S
C1683      C1684   1.368       .  D
C1683      C2893   1.501       .  S
C1683      C2923   1.505       .  S
C1684      C2513   1.496       .  S
C1684      C2583   1.488       .  S
C1685      C1686   1.376       .  D
C1685      C2743   1.532       .  S
C1685      C2843   1.506       .  S
C1686      C2613   1.492       .  S
C1686      C2723   1.488       .  S
C1687      C1688   1.372       .  D
C1687      C2880   1.495       .  S
C1687      C2913   1.490       .  S
C1688      C2773   1.531       .  S
C1688      C2820   1.506       .  S
C1689      C1690   1.367       .  D
C1689      C3103   1.490       .  S
C1689      C3133   1.490       .  S
C1690      C2863   1.504       .  S
C1690      C2953   1.505       .  S
C1691      C1692   1.364       .  D
C1691      C2903   1.488       .  S
C1691      C2943   1.497       .  S
C1692      C2993   1.494       .  S
C1692      C3033   1.486       .  S
C1693      C1694   1.381       .  D
C1693      C3123   1.494       .  S
C1693      C3153   1.513       .  S
C1694      C3020   1.502       .  S
C1694      C3053   1.544       .  S
C1695      C1696   1.368       .  D
C1695      C2730   1.496       .  S
C1695      C2763   1.486       .  S
C1696      C2973   1.493       .  S
C1696      C3003   1.512       .  S
C1697      C1698   1.365       .  D
C1697      C2980   1.492       .  S
C1697      C3013   1.497       .  S
C1698      C1773   1.490       .  S
C1698      C1800   1.489       .  S
C1699      C1700   1.367       .  D
C1699      C3083   1.490       .  S
C1699      C3163   1.492       .  S
C1700      C2393   1.495       .  S
C1700      C2413   1.487       .  S
C1701      C1702   1.361       .  D
C1701      C1733   1.489       .  S
C1701      C1753   1.487       .  S
C1702      C2300   1.487       .  S
C1702      C2373   1.485       .  S
C1703      C1704   1.364       .  D
C1703      C3073   1.489       .  S
C1703      C3143   1.492       .  S
C1704      C2803   1.488       .  S
C1704      C2830   1.487       .  S
C1705      C1706   1.369       .  D
C1705      C3043   1.508       .  S
C1705      C3063   1.525       .  S
C1706      C2343   1.494       .  S
C1706      C2353   1.491       .  S
C1707      C1708   1.366       .  D
C1707      C3430   1.496       .  S
C1707      C3463   1.510       .  S
C1708      C1813   1.497       .  S
C1708      C1843   1.489       .  S
C1709      C1710   1.366       .  D
C1709      C3293   1.487       .  S
C1709      C3313   1.495       .  S
C1710      C2933   1.497       .  S
C1710      C2963   1.486       .  S
C1711      C1712   1.366       .  D
C1711      C3610   1.493       .  S
C1711      C3643   1.493       .  S
C1712      C2473   1.493       .  S
C1712      C2503   1.492       .  S
C1713      C1714   1.373       .  D
C1713      C3543   1.523       .  S
C1713      C3573   1.503       .  S
C1714      C2643   1.496       .  S
C1714      C2713   1.492       .  S
C1715      C1716   1.366       .  D
C1715      C2533   1.486       .  S
C1715      C2553   1.488       .  S
C1716      C1953   1.510       .  S
C1716      C1973   1.502       .  S
C1717      C1718   1.373       .  D
C1717      C3373   1.492       .  S
C1717      C3403   1.490       .  S
C1718      C2623   1.500       .  S
C1718      C2683   1.528       .  S
C1719      C1720   1.364       .  D
C1719      C3603   1.494       .  S
C1719      C3633   1.486       .  S
C1720      C3280   1.486       .  S
C1720      C3303   1.490       .  S
C1721      C1722   1.369       .  D
C1721      C3563   1.512       .  S
C1721      C3623   1.505       .  S
C1722      C3443   1.495       .  S
C1722      C3483   1.487       .  S
C1723      C1724   1.368       .  D
C1723      C2653   1.487       .  S
C1723      C2693   1.488       .  S
C1724      C3223   1.511       .  S
C1724      C3253   1.504       .  S
C1725      C1726   1.366       .  D
C1725      C3093   1.490       .  S
C1725      C3110   1.489       .  S
C1726      C1873   1.503       .  S
C1726      C1893   1.508       .  S
C1727      C1728   1.366       .  D
C1727      C3423   1.498       .  S
C1727      C3453   1.505       .  S
C1728      C3243   1.492       .  S
C1728      C3323   1.492       .  S
C1729      H1736   1.084       .  S
C1729      C1730   1.402       .  A
C1729      C1734   1.389       .  A
C1730      C1731   1.407       .  A
C1731      C1732   1.404       .  A
C1731      F1738   1.357       .  S
C1732      H1737   1.083       .  S
C1732      C1733   1.406       .  A
C1733      C1734   1.406       .  A
C1734      F1735   1.353       .  S
C1739      H1746   1.083       .  S
C1739      C1740   1.400       .  A
C1739      C1744   1.399       .  A
C1740      C1741   1.401       .  A
C1741      C1742   1.398       .  A
C1741      F1748   1.358       .  S
C1742      H1747   1.073       .  S
C1742      C1743   1.410       .  A
C1743      C1744   1.410       .  A
C1744      F1745   1.357       .  S
C1749      H1756   1.084       .  S
C1749      C1750   1.402       .  A
C1749      C1754   1.395       .  A
C1750      C1751   1.405       .  A
C1751      C1752   1.404       .  A
C1751      F1758   1.357       .  S
C1752      H1757   1.083       .  S
C1752      C1753   1.405       .  A
C1753      C1754   1.406       .  A
C1754      F1755   1.355       .  S
C1759      H1766   1.083       .  S
C1759      C1760   1.405       .  A
C1759      C1764   1.414       .  A
C1760      C1761   1.400       .  A
C1761      C1762   1.374       .  A
C1761      F1768   1.360       .  S
C1762      H1767   1.077       .  S
C1762      C1763   1.410       .  A
C1763      C1764   1.421       .  A
C1764      F1765   1.353       .  S
C1769      H1776   1.083       .  S
C1769      C1770   1.403       .  A
C1769      C1774   1.404       .  A
C1770      C1771   1.408       .  A
C1771      C1772   1.399       .  A
C1771      F1778   1.358       .  S
C1772      H1777   1.081       .  S
C1772      C1773   1.403       .  A
C1773      C1774   1.408       .  A
C1774      F1775   1.357       .  S
C1779      H1786   1.083       .  S
C1779      C1780   1.406       .  A
C1779      C1784   1.401       .  A
C1780      C1781   1.406       .  A
C1781      C1782   1.400       .  A
C1781      F1788   1.357       .  S
C1782      H1787   1.083       .  S
C1782      C1783   1.408       .  A
C1783      C1784   1.406       .  A
C1784      F1785   1.357       .  S
C1789      H1796   1.083       .  S
C1789      C1790   1.402       .  A
C1789      C1794   1.404       .  A
C1790      C1791   1.401       .  A
C1791      C1792   1.394       .  A
C1791      F1798   1.358       .  S
C1792      H1797   1.071       .  S
C1792      C1793   1.410       .  A
C1793      C1794   1.411       .  A
C1794      F1795   1.357       .  S
C1799      H1806   1.083       .  S
C1799      C1800   1.404       .  A
C1799      C1804   1.406       .  A
C1800      C1801   1.404       .  A
C1801      C1802   1.389       .  A
C1801      F1808   1.357       .  S
C1802      H1807   1.084       .  S
C1802      C1803   1.406       .  A
C1803      C1804   1.410       .  A
C1804      F1805   1.357       .  S
C1809      H1816   1.083       .  S
C1809      C1810   1.409       .  A
C1809      C1814   1.404       .  A
C1810      C1811   1.405       .  A
C1811      C1812   1.404       .  A
C1811      F1818   1.357       .  S
C1812      H1817   1.083       .  S
C1812      C1813   1.406       .  A
C1813      C1814   1.407       .  A
C1814      F1815   1.356       .  S
C1819      H1826   1.081       .  S
C1819      C1820   1.411       .  A
C1819      C1824   1.376       .  A
C1820      C1821   1.415       .  A
C1821      C1822   1.419       .  A
C1821      F1828   1.356       .  S
C1822      H1827   1.082       .  S
C1822      C1823   1.413       .  A
C1823      C1824   1.400       .  A
C1824      F1825   1.357       .  S
C1829      H1836   1.083       .  S
C1829      C1830   1.406       .  A
C1829      C1834   1.408       .  A
C1830      C1831   1.408       .  A
C1831      C1832   1.390       .  A
C1831      F1838   1.359       .  S
C1832      H1837   1.083       .  S
C1832      C1833   1.400       .  A
C1833      C1834   1.408       .  A
C1834      F1835   1.356       .  S
C1839      H1846   1.084       .  S
C1839      C1840   1.405       .  A
C1839      C1844   1.390       .  A
C1840      C1841   1.410       .  A
C1841      C1842   1.409       .  A
C1841      F1848   1.357       .  S
C1842      H1847   1.083       .  S
C1842      C1843   1.406       .  A
C1843      C1844   1.404       .  A
C1844      F1845   1.358       .  S
C1849      H1856   1.084       .  S
C1849      C1850   1.406       .  A
C1849      C1854   1.398       .  A
C1850      C1851   1.404       .  A
C1851      C1852   1.403       .  A
C1851      F1858   1.357       .  S
C1852      H1857   1.083       .  S
C1852      C1853   1.406       .  A
C1853      C1854   1.406       .  A
C1854      F1855   1.356       .  S
C1859      H1866   1.083       .  S
C1859      C1860   1.400       .  A
C1859      C1864   1.387       .  A
C1860      C1861   1.408       .  A
C1861      C1862   1.409       .  A
C1861      F1868   1.356       .  S
C1862      H1867   1.083       .  S
C1862      C1863   1.406       .  A
C1863      C1864   1.406       .  A
C1864      F1865   1.359       .  S
C1869      H1876   1.083       .  S
C1869      C1870   1.400       .  A
C1869      C1874   1.400       .  A
C1870      C1871   1.404       .  A
C1871      C1872   1.402       .  A
C1871      F1878   1.358       .  S
C1872      H1877   1.077       .  S
C1872      C1873   1.410       .  A
C1873      C1874   1.410       .  A
C1874      F1875   1.357       .  S
C1879      H1886   1.083       .  S
C1879      C1880   1.403       .  A
C1879      C1884   1.402       .  A
C1880      C1881   1.402       .  A
C1881      C1882   1.399       .  A
C1881      F1888   1.358       .  S
C1882      H1887   1.078       .  S
C1882      C1883   1.409       .  A
C1883      C1884   1.408       .  A
C1884      F1885   1.357       .  S
C1889      H1896   1.083       .  S
C1889      C1890   1.405       .  A
C1889      C1894   1.373       .  A
C1890      C1891   1.411       .  A
C1891      C1892   1.418       .  A
C1891      F1898   1.356       .  S
C1892      H1897   1.082       .  S
C1892      C1893   1.416       .  A
C1893      C1894   1.404       .  A
C1894      F1895   1.354       .  S
C1899      H1906   1.082       .  S
C1899      C1900   1.402       .  A
C1899      C1904   1.396       .  A
C1900      C1901   1.409       .  A
C1901      C1902   1.410       .  A
C1901      F1908   1.357       .  S
C1902      H1907   1.083       .  S
C1902      C1903   1.407       .  A
C1903      C1904   1.410       .  A
C1904      F1905   1.358       .  S
C1909      H1916   1.081       .  S
C1909      C1910   1.417       .  A
C1909      C1914   1.417       .  A
C1910      C1911   1.418       .  A
C1911      C1912   1.376       .  A
C1911      F1918   1.357       .  S
C1912      H1917   1.079       .  S
C1912      C1913   1.398       .  A
C1913      C1914   1.412       .  A
C1914      F1915   1.356       .  S
C1919      H1926   1.084       .  S
C1919      C1920   1.404       .  A
C1919      C1924   1.390       .  A
C1920      C1921   1.408       .  A
C1921      C1922   1.411       .  A
C1921      F1928   1.357       .  S
C1922      H1927   1.083       .  S
C1922      C1923   1.408       .  A
C1923      C1924   1.405       .  A
C1924      F1925   1.358       .  S
C1929      H1936   1.082       .  S
C1929      C1930   1.407       .  A
C1929      C1934   1.404       .  A
C1930      C1931   1.406       .  A
C1931      C1932   1.392       .  A
C1931      F1938   1.352       .  S
C1932      H1937   1.084       .  S
C1932      C1933   1.402       .  A
C1933      C1934   1.405       .  A
C1934      F1935   1.357       .  S
C1939      H1946   1.083       .  S
C1939      C1940   1.403       .  A
C1939      C1944   1.403       .  A
C1940      C1941   1.411       .  A
C1941      C1942   1.398       .  A
C1941      F1948   1.358       .  S
C1942      H1947   1.083       .  S
C1942      C1943   1.402       .  A
C1943      C1944   1.407       .  A
C1944      F1945   1.356       .  S
C1949      H1956   1.083       .  S
C1949      C1950   1.409       .  A
C1949      C1954   1.415       .  A
C1950      C1951   1.405       .  A
C1951      C1952   1.376       .  A
C1951      F1958   1.360       .  S
C1952      H1957   1.077       .  S
C1952      C1953   1.405       .  A
C1953      C1954   1.416       .  A
C1954      F1955   1.355       .  S
C1959      H1966   1.083       .  S
C1959      C1960   1.406       .  A
C1959      C1964   1.400       .  A
C1960      C1961   1.403       .  A
C1961      C1962   1.400       .  A
C1961      F1968   1.357       .  S
C1962      H1967   1.083       .  S
C1962      C1963   1.404       .  A
C1963      C1964   1.405       .  A
C1964      F1965   1.356       .  S
C1969      H1976   1.083       .  S
C1969      C1970   1.400       .  A
C1969      C1974   1.401       .  A
C1970      C1971   1.401       .  A
C1971      C1972   1.395       .  A
C1971      F1978   1.358       .  S
C1972      H1977   1.073       .  S
C1972      C1973   1.410       .  A
C1973      C1974   1.409       .  A
C1974      F1975   1.357       .  S
C1979      H1986   1.084       .  S
C1979      C1980   1.401       .  A
C1979      C1984   1.394       .  A
C1980      C1981   1.406       .  A
C1981      C1982   1.400       .  A
C1981      F1988   1.357       .  S
C1982      H1987   1.083       .  S
C1982      C1983   1.404       .  A
C1983      C1984   1.407       .  A
C1984      F1985   1.355       .  S
C1989      H1996   1.083       .  S
C1989      C1990   1.409       .  A
C1989      C1994   1.411       .  A
C1990      C1991   1.407       .  A
C1991      C1992   1.391       .  A
C1991      F1998   1.356       .  S
C1992      H1997   1.084       .  S
C1992      C1993   1.404       .  A
C1993      C1994   1.407       .  A
C1994      F1995   1.356       .  S
C1999      H2006   1.083       .  S
C1999      C2000   1.403       .  A
C1999      C2004   1.403       .  A
C2000      C2001   1.411       .  A
C2001      C2002   1.400       .  A
C2001      F2008   1.358       .  S
C2002      H2007   1.083       .  S
C2002      C2003   1.404       .  A
C2003      C2004   1.409       .  A
C2004      F2005   1.355       .  S
C2009      H2016   1.083       .  S
C2009      C2010   1.405       .  A
C2009      C2014   1.407       .  A
C2010      C2011   1.407       .  A
C2011      C2012   1.391       .  A
C2011      F2018   1.359       .  S
C2012      H2017   1.084       .  S
C2012      C2013   1.401       .  A
C2013      C2014   1.407       .  A
C2014      F2015   1.356       .  S
C2019      H2026   1.084       .  S
C2019      C2020   1.405       .  A
C2019      C2024   1.395       .  A
C2020      C2021   1.407       .  A
C2021      C2022   1.403       .  A
C2021      F2028   1.357       .  S
C2022      H2027   1.083       .  S
C2022      C2023   1.406       .  A
C2023      C2024   1.406       .  A
C2024      F2025   1.356       .  S
C2029      H2036   1.084       .  S
C2029      C2030   1.404       .  A
C2029      C2034   1.392       .  A
C2030      C2031   1.409       .  A
C2031      C2032   1.406       .  A
C2031      F2038   1.357       .  S
C2032      H2037   1.083       .  S
C2032      C2033   1.405       .  A
C2033      C2034   1.406       .  A
C2034      F2035   1.358       .  S
C2039      H2046   1.083       .  S
C2039      C2040   1.404       .  A
C2039      C2044   1.405       .  A
C2040      C2041   1.407       .  A
C2041      C2042   1.394       .  A
C2041      F2048   1.358       .  S
C2042      H2047   1.082       .  S
C2042      C2043   1.402       .  A
C2043      C2044   1.406       .  A
C2044      F2045   1.357       .  S
C2049      H2056   1.084       .  S
C2049      C2050   1.404       .  A
C2049      C2054   1.387       .  A
C2050      C2051   1.410       .  A
C2051      C2052   1.406       .  A
C2051      F2058   1.357       .  S
C2052      H2057   1.083       .  S
C2052      C2053   1.405       .  A
C2053      C2054   1.404       .  A
C2054      F2055   1.358       .  S
C2059      H2066   1.084       .  S
C2059      C2060   1.402       .  A
C2059      C2064   1.390       .  A
C2060      C2061   1.405       .  A
C2061      C2062   1.406       .  A
C2061      F2068   1.357       .  S
C2062      H2067   1.083       .  S
C2062      C2063   1.407       .  A
C2063      C2064   1.407       .  A
C2064      F2065   1.354       .  S
C2069      H2076   1.082       .  S
C2069      C2070   1.406       .  A
C2069      C2074   1.373       .  A
C2070      C2071   1.412       .  A
C2071      C2072   1.416       .  A
C2071      F2078   1.356       .  S
C2072      H2077   1.082       .  S
C2072      C2073   1.414       .  A
C2073      C2074   1.403       .  A
C2074      F2075   1.354       .  S
C2079      H2086   1.083       .  S
C2079      C2080   1.405       .  A
C2079      C2084   1.400       .  A
C2080      C2081   1.407       .  A
C2081      C2082   1.403       .  A
C2081      F2088   1.356       .  S
C2082      H2087   1.083       .  S
C2082      C2083   1.407       .  A
C2083      C2084   1.403       .  A
C2084      F2085   1.357       .  S
C2089      H2096   1.083       .  S
C2089      C2090   1.404       .  A
C2089      C2094   1.413       .  A
C2090      C2091   1.402       .  A
C2091      C2092   1.381       .  A
C2091      F2098   1.360       .  S
C2092      H2097   1.077       .  S
C2092      C2093   1.411       .  A
C2093      C2094   1.421       .  A
C2094      F2095   1.354       .  S
C2099      H2106   1.082       .  S
C2099      C2100   1.401       .  A
C2099      C2104   1.393       .  A
C2100      C2101   1.407       .  A
C2101      C2102   1.407       .  A
C2101      F2108   1.357       .  S
C2102      H2107   1.083       .  S
C2102      C2103   1.405       .  A
C2103      C2104   1.408       .  A
C2104      F2105   1.358       .  S
C2109      H2116   1.084       .  S
C2109      C2110   1.397       .  A
C2109      C2114   1.395       .  A
C2110      C2111   1.401       .  A
C2111      C2112   1.401       .  A
C2111      F2118   1.357       .  S
C2112      H2117   1.084       .  S
C2112      C2113   1.409       .  A
C2113      C2114   1.413       .  A
C2114      F2115   1.348       .  S
C2119      H2126   1.084       .  S
C2119      C2120   1.402       .  A
C2119      C2124   1.391       .  A
C2120      C2121   1.408       .  A
C2121      C2122   1.403       .  A
C2121      F2128   1.357       .  S
C2122      H2127   1.083       .  S
C2122      C2123   1.405       .  A
C2123      C2124   1.407       .  A
C2124      F2125   1.354       .  S
C2129      H2136   1.083       .  S
C2129      C2130   1.403       .  A
C2129      C2134   1.413       .  A
C2130      C2131   1.393       .  A
C2131      C2132   1.383       .  A
C2131      F2138   1.357       .  S
C2132      H2137   1.073       .  S
C2132      C2133   1.420       .  A
C2133      C2134   1.426       .  A
C2134      F2135   1.353       .  S
C2139      H2146   1.080       .  S
C2139      C2140   1.408       .  A
C2139      C2144   1.399       .  A
C2140      C2141   1.408       .  A
C2141      C2142   1.404       .  A
C2141      F2148   1.357       .  S
C2142      H2147   1.083       .  S
C2142      C2143   1.404       .  A
C2143      C2144   1.406       .  A
C2144      F2145   1.358       .  S
C2149      H2156   1.083       .  S
C2149      C2150   1.404       .  A
C2149      C2154   1.402       .  A
C2150      C2151   1.405       .  A
C2151      C2152   1.395       .  A
C2151      F2158   1.358       .  S
C2152      H2157   1.081       .  S
C2152      C2153   1.403       .  A
C2153      C2154   1.406       .  A
C2154      F2155   1.357       .  S
C2159      H2166   1.084       .  S
C2159      C2160   1.400       .  A
C2159      C2164   1.400       .  A
C2160      C2161   1.401       .  A
C2161      C2162   1.401       .  A
C2161      F2168   1.357       .  S
C2162      H2167   1.084       .  S
C2162      C2163   1.408       .  A
C2163      C2164   1.415       .  A
C2164      F2165   1.352       .  S
C2169      H2176   1.082       .  S
C2169      C2170   1.411       .  A
C2169      C2174   1.421       .  A
C2170      C2171   1.406       .  A
C2171      C2172   1.367       .  A
C2171      F2178   1.361       .  S
C2172      H2177   1.077       .  S
C2172      C2173   1.404       .  A
C2173      C2174   1.421       .  A
C2174      F2175   1.354       .  S
C2179      H2186   1.083       .  S
C2179      C2180   1.406       .  A
C2179      C2184   1.403       .  A
C2180      C2181   1.407       .  A
C2181      C2182   1.395       .  A
C2181      F2188   1.352       .  S
C2182      H2187   1.084       .  S
C2182      C2183   1.403       .  A
C2183      C2184   1.405       .  A
C2184      F2185   1.357       .  S
C2189      H2196   1.083       .  S
C2189      C2190   1.407       .  A
C2189      C2194   1.407       .  A
C2190      C2191   1.407       .  A
C2191      C2192   1.388       .  A
C2191      F2198   1.359       .  S
C2192      H2197   1.083       .  S
C2192      C2193   1.401       .  A
C2193      C2194   1.406       .  A
C2194      F2195   1.356       .  S
C2199      H2206   1.083       .  S
C2199      C2200   1.404       .  A
C2199      C2204   1.407       .  A
C2200      C2201   1.398       .  A
C2201      C2202   1.390       .  A
C2201      F2208   1.359       .  S
C2202      H2207   1.070       .  S
C2202      C2203   1.411       .  A
C2203      C2204   1.413       .  A
C2204      F2205   1.357       .  S
C2209      H2216   1.084       .  S
C2209      C2210   1.404       .  A
C2209      C2214   1.390       .  A
C2210      C2211   1.406       .  A
C2211      C2212   1.408       .  A
C2211      F2218   1.357       .  S
C2212      H2217   1.083       .  S
C2212      C2213   1.407       .  A
C2213      C2214   1.404       .  A
C2214      F2215   1.357       .  S
C2219      H2226   1.084       .  S
C2219      C2220   1.405       .  A
C2219      C2224   1.384       .  A
C2220      C2221   1.409       .  A
C2221      C2222   1.409       .  A
C2221      F2228   1.356       .  S
C2222      H2227   1.083       .  S
C2222      C2223   1.407       .  A
C2223      C2224   1.401       .  A
C2224      F2225   1.355       .  S
C2229      H2236   1.083       .  S
C2229      C2230   1.405       .  A
C2229      C2234   1.408       .  A
C2230      C2231   1.407       .  A
C2231      C2232   1.389       .  A
C2231      F2238   1.359       .  S
C2232      H2237   1.080       .  S
C2232      C2233   1.399       .  A
C2233      C2234   1.408       .  A
C2234      F2235   1.356       .  S
C2239      H2246   1.083       .  S
C2239      C2240   1.405       .  A
C2239      C2244   1.408       .  A
C2240      C2241   1.402       .  A
C2241      C2242   1.387       .  A
C2241      F2248   1.359       .  S
C2242      H2247   1.070       .  S
C2242      C2243   1.402       .  A
C2243      C2244   1.411       .  A
C2244      F2245   1.356       .  S
C2249      H2256   1.083       .  S
C2249      C2250   1.404       .  A
C2249      C2254   1.407       .  A
C2250      C2251   1.406       .  A
C2251      C2252   1.391       .  A
C2251      F2258   1.359       .  S
C2252      H2257   1.076       .  S
C2252      C2253   1.401       .  A
C2253      C2254   1.409       .  A
C2254      F2255   1.356       .  S
C2259      H2266   1.083       .  S
C2259      C2260   1.409       .  A
C2259      C2264   1.411       .  A
C2260      C2261   1.403       .  A
C2261      C2262   1.390       .  A
C2261      F2268   1.356       .  S
C2262      H2267   1.084       .  S
C2262      C2263   1.406       .  A
C2263      C2264   1.407       .  A
C2264      F2265   1.357       .  S
C2269      H2276   1.084       .  S
C2269      C2270   1.404       .  A
C2269      C2274   1.399       .  A
C2270      C2271   1.403       .  A
C2271      C2272   1.402       .  A
C2271      F2278   1.357       .  S
C2272      H2277   1.083       .  S
C2272      C2273   1.406       .  A
C2273      C2274   1.408       .  A
C2274      F2275   1.355       .  S
C2279      H2286   1.083       .  S
C2279      C2280   1.403       .  A
C2279      C2284   1.401       .  A
C2280      C2281   1.406       .  A
C2281      C2282   1.395       .  A
C2281      F2288   1.358       .  S
C2282      H2287   1.080       .  S
C2282      C2283   1.403       .  A
C2283      C2284   1.407       .  A
C2284      F2285   1.357       .  S
C2289      H2296   1.084       .  S
C2289      C2290   1.401       .  A
C2289      C2294   1.396       .  A
C2290      C2291   1.403       .  A
C2291      C2292   1.404       .  A
C2291      F2298   1.357       .  S
C2292      H2297   1.083       .  S
C2292      C2293   1.408       .  A
C2293      C2294   1.409       .  A
C2294      F2295   1.352       .  S
C2299      H2306   1.080       .  S
C2299      C2300   1.398       .  A
C2299      C2304   1.386       .  A
C2300      C2301   1.407       .  A
C2301      C2302   1.407       .  A
C2301      F2308   1.356       .  S
C2302      H2307   1.083       .  S
C2302      C2303   1.408       .  A
C2303      C2304   1.408       .  A
C2304      F2305   1.359       .  S
C2309      H2316   1.083       .  S
C2309      C2310   1.400       .  A
C2309      C2314   1.400       .  A
C2310      C2311   1.403       .  A
C2311      C2312   1.400       .  A
C2311      F2318   1.358       .  S
C2312      H2317   1.075       .  S
C2312      C2313   1.410       .  A
C2313      C2314   1.410       .  A
C2314      F2315   1.357       .  S
C2319      H2326   1.083       .  S
C2319      C2320   1.404       .  A
C2319      C2324   1.383       .  A
C2320      C2321   1.410       .  A
C2321      C2322   1.407       .  A
C2321      F2328   1.356       .  S
C2322      H2327   1.083       .  S
C2322      C2323   1.406       .  A
C2323      C2324   1.402       .  A
C2324      F2325   1.356       .  S
C2329      H2336   1.083       .  S
C2329      C2330   1.404       .  A
C2329      C2334   1.376       .  A
C2330      C2331   1.410       .  A
C2331      C2332   1.414       .  A
C2331      F2338   1.356       .  S
C2332      H2337   1.082       .  S
C2332      C2333   1.413       .  A
C2333      C2334   1.404       .  A
C2334      F2335   1.354       .  S
C2339      H2346   1.084       .  S
C2339      C2340   1.405       .  A
C2339      C2344   1.391       .  A
C2340      C2341   1.407       .  A
C2341      C2342   1.408       .  A
C2341      F2348   1.357       .  S
C2342      H2347   1.083       .  S
C2342      C2343   1.407       .  A
C2343      C2344   1.405       .  A
C2344      F2345   1.358       .  S
C2349      H2356   1.083       .  S
C2349      C2350   1.408       .  A
C2349      C2354   1.402       .  A
C2350      C2351   1.404       .  A
C2351      C2352   1.399       .  A
C2351      F2358   1.358       .  S
C2352      H2357   1.083       .  S
C2352      C2353   1.406       .  A
C2353      C2354   1.406       .  A
C2354      F2355   1.357       .  S
C2359      H2366   1.075       .  S
C2359      C2360   1.409       .  A
C2359      C2364   1.369       .  A
C2360      C2361   1.425       .  A
C2361      C2362   1.423       .  A
C2361      F2368   1.352       .  S
C2362      H2367   1.082       .  S
C2362      C2363   1.410       .  A
C2363      C2364   1.404       .  A
C2364      F2365   1.361       .  S
C2369      H2376   1.083       .  S
C2369      C2370   1.403       .  A
C2369      C2374   1.402       .  A
C2370      C2371   1.405       .  A
C2371      C2372   1.394       .  A
C2371      F2378   1.358       .  S
C2372      H2377   1.080       .  S
C2372      C2373   1.403       .  A
C2373      C2374   1.407       .  A
C2374      F2375   1.356       .  S
C2379      H2386   1.084       .  S
C2379      C2380   1.398       .  A
C2379      C2384   1.392       .  A
C2380      C2381   1.406       .  A
C2381      C2382   1.406       .  A
C2381      F2388   1.357       .  S
C2382      H2387   1.083       .  S
C2382      C2383   1.410       .  A
C2383      C2384   1.414       .  A
C2384      F2385   1.350       .  S
C2389      H2396   1.083       .  S
C2389      C2390   1.407       .  A
C2389      C2394   1.409       .  A
C2390      C2391   1.406       .  A
C2391      C2392   1.387       .  A
C2391      F2398   1.359       .  S
C2392      H2397   1.077       .  S
C2392      C2393   1.400       .  A
C2393      C2394   1.409       .  A
C2394      F2395   1.356       .  S
C2399      H2406   1.084       .  S
C2399      C2400   1.404       .  A
C2399      C2404   1.389       .  A
C2400      C2401   1.407       .  A
C2401      C2402   1.408       .  A
C2401      F2408   1.357       .  S
C2402      H2407   1.083       .  S
C2402      C2403   1.406       .  A
C2403      C2404   1.404       .  A
C2404      F2405   1.358       .  S
C2409      H2416   1.084       .  S
C2409      C2410   1.404       .  A
C2409      C2414   1.394       .  A
C2410      C2411   1.405       .  A
C2411      C2412   1.405       .  A
C2411      F2418   1.357       .  S
C2412      H2417   1.083       .  S
C2412      C2413   1.406       .  A
C2413      C2414   1.406       .  A
C2414      F2415   1.356       .  S
C2419      H2426   1.083       .  S
C2419      C2420   1.406       .  A
C2419      C2424   1.405       .  A
C2420      C2421   1.406       .  A
C2421      C2422   1.392       .  A
C2421      F2428   1.352       .  S
C2422      H2427   1.084       .  S
C2422      C2423   1.403       .  A
C2423      C2424   1.406       .  A
C2424      F2425   1.357       .  S
C2429      H2436   1.083       .  S
C2429      C2430   1.401       .  A
C2429      C2434   1.403       .  A
C2430      C2431   1.398       .  A
C2431      C2432   1.393       .  A
C2431      F2438   1.359       .  S
C2432      H2437   1.071       .  S
C2432      C2433   1.411       .  A
C2433      C2434   1.409       .  A
C2434      F2435   1.357       .  S
C2439      H2446   1.077       .  S
C2439      C2440   1.404       .  A
C2439      C2444   1.393       .  A
C2440      C2441   1.407       .  A
C2441      C2442   1.402       .  A
C2441      F2448   1.357       .  S
C2442      H2447   1.083       .  S
C2442      C2443   1.404       .  A
C2443      C2444   1.402       .  A
C2444      F2445   1.358       .  S
C2449      H2456   1.084       .  S
C2449      C2450   1.405       .  A
C2449      C2454   1.393       .  A
C2450      C2451   1.407       .  A
C2451      C2452   1.409       .  A
C2451      F2458   1.357       .  S
C2452      H2457   1.083       .  S
C2452      C2453   1.407       .  A
C2453      C2454   1.406       .  A
C2454      F2455   1.356       .  S
C2459      H2466   1.082       .  S
C2459      C2460   1.412       .  A
C2459      C2464   1.416       .  A
C2460      C2461   1.414       .  A
C2461      C2462   1.375       .  A
C2461      F2468   1.358       .  S
C2462      H2467   1.079       .  S
C2462      C2463   1.397       .  A
C2463      C2464   1.412       .  A
C2464      F2465   1.355       .  S
C2469      H2476   1.084       .  S
C2469      C2470   1.406       .  A
C2469      C2474   1.389       .  A
C2470      C2471   1.408       .  A
C2471      C2472   1.411       .  A
C2471      F2478   1.357       .  S
C2472      H2477   1.083       .  S
C2472      C2473   1.408       .  A
C2473      C2474   1.404       .  A
C2474      F2475   1.357       .  S
C2479      H2486   1.083       .  S
C2479      C2480   1.403       .  A
C2479      C2484   1.402       .  A
C2480      C2481   1.409       .  A
C2481      C2482   1.398       .  A
C2481      F2488   1.358       .  S
C2482      H2487   1.083       .  S
C2482      C2483   1.404       .  A
C2483      C2484   1.408       .  A
C2484      F2485   1.356       .  S
C2489      H2496   1.084       .  S
C2489      C2490   1.404       .  A
C2489      C2494   1.386       .  A
C2490      C2491   1.407       .  A
C2491      C2492   1.406       .  A
C2491      F2498   1.357       .  S
C2492      H2497   1.083       .  S
C2492      C2493   1.406       .  A
C2493      C2494   1.403       .  A
C2494      F2495   1.357       .  S
C2499      H2506   1.084       .  S
C2499      C2500   1.401       .  A
C2499      C2504   1.392       .  A
C2500      C2501   1.405       .  A
C2501      C2502   1.402       .  A
C2501      F2508   1.357       .  S
C2502      H2507   1.083       .  S
C2502      C2503   1.407       .  A
C2503      C2504   1.407       .  A
C2504      F2505   1.352       .  S
C2509      H2516   1.083       .  S
C2509      C2510   1.403       .  A
C2509      C2514   1.403       .  A
C2510      C2511   1.409       .  A
C2511      C2512   1.398       .  A
C2511      F2518   1.358       .  S
C2512      H2517   1.083       .  S
C2512      C2513   1.404       .  A
C2513      C2514   1.409       .  A
C2514      F2515   1.356       .  S
C2519      H2526   1.083       .  S
C2519      C2520   1.405       .  A
C2519      C2524   1.408       .  A
C2520      C2521   1.409       .  A
C2521      C2522   1.394       .  A
C2521      F2528   1.358       .  S
C2522      H2527   1.082       .  S
C2522      C2523   1.401       .  A
C2523      C2524   1.407       .  A
C2524      F2525   1.356       .  S
C2529      H2536   1.083       .  S
C2529      C2530   1.407       .  A
C2529      C2534   1.399       .  A
C2530      C2531   1.403       .  A
C2531      C2532   1.400       .  A
C2531      F2538   1.357       .  S
C2532      H2537   1.083       .  S
C2532      C2533   1.405       .  A
C2533      C2534   1.405       .  A
C2534      F2535   1.357       .  S
C2539      H2546   1.084       .  S
C2539      C2540   1.401       .  A
C2539      C2544   1.393       .  A
C2540      C2541   1.404       .  A
C2541      C2542   1.403       .  A
C2541      F2548   1.357       .  S
C2542      H2547   1.083       .  S
C2542      C2543   1.408       .  A
C2543      C2544   1.408       .  A
C2544      F2545   1.352       .  S
C2549      H2556   1.083       .  S
C2549      C2550   1.407       .  A
C2549      C2554   1.407       .  A
C2550      C2551   1.407       .  A
C2551      C2552   1.388       .  A
C2551      F2558   1.359       .  S
C2552      H2557   1.083       .  S
C2552      C2553   1.401       .  A
C2553      C2554   1.407       .  A
C2554      F2555   1.356       .  S
C2559      H2566   1.083       .  S
C2559      C2560   1.401       .  A
C2559      C2564   1.401       .  A
C2560      C2561   1.408       .  A
C2561      C2562   1.403       .  A
C2561      F2568   1.358       .  S
C2562      H2567   1.083       .  S
C2562      C2563   1.405       .  A
C2563      C2564   1.409       .  A
C2564      F2565   1.357       .  S
C2569      H2576   1.083       .  S
C2569      C2570   1.408       .  A
C2569      C2574   1.410       .  A
C2570      C2571   1.401       .  A
C2571      C2572   1.382       .  A
C2571      F2578   1.357       .  S
C2572      H2577   1.084       .  S
C2572      C2573   1.405       .  A
C2573      C2574   1.410       .  A
C2574      F2575   1.356       .  S
C2579      H2586   1.084       .  S
C2579      C2580   1.404       .  A
C2579      C2584   1.391       .  A
C2580      C2581   1.407       .  A
C2581      C2582   1.408       .  A
C2581      F2588   1.356       .  S
C2582      H2587   1.082       .  S
C2582      C2583   1.407       .  A
C2583      C2584   1.405       .  A
C2584      F2585   1.359       .  S
C2589      H2596   1.083       .  S
C2589      C2590   1.405       .  A
C2589      C2594   1.404       .  A
C2590      C2591   1.402       .  A
C2591      C2592   1.386       .  A
C2591      F2598   1.357       .  S
C2592      H2597   1.084       .  S
C2592      C2593   1.403       .  A
C2593      C2594   1.406       .  A
C2594      F2595   1.357       .  S
C2599      H2606   1.084       .  S
C2599      C2600   1.405       .  A
C2599      C2604   1.391       .  A
C2600      C2601   1.404       .  A
C2601      C2602   1.403       .  A
C2601      F2608   1.356       .  S
C2602      H2607   1.082       .  S
C2602      C2603   1.407       .  A
C2603      C2604   1.406       .  A
C2604      F2605   1.354       .  S
C2609      H2616   1.083       .  S
C2609      C2610   1.407       .  A
C2609      C2614   1.406       .  A
C2610      C2611   1.407       .  A
C2611      C2612   1.391       .  A
C2611      F2618   1.358       .  S
C2612      H2617   1.082       .  S
C2612      C2613   1.402       .  A
C2613      C2614   1.406       .  A
C2614      F2615   1.356       .  S
C2619      H2626   1.084       .  S
C2619      C2620   1.401       .  A
C2619      C2624   1.396       .  A
C2620      C2621   1.405       .  A
C2621      C2622   1.404       .  A
C2621      F2628   1.357       .  S
C2622      H2627   1.083       .  S
C2622      C2623   1.408       .  A
C2623      C2624   1.411       .  A
C2624      F2625   1.354       .  S
C2629      H2636   1.083       .  S
C2629      C2630   1.408       .  A
C2629      C2634   1.401       .  A
C2630      C2631   1.405       .  A
C2631      C2632   1.401       .  A
C2631      F2638   1.357       .  S
C2632      H2637   1.083       .  S
C2632      C2633   1.407       .  A
C2633      C2634   1.405       .  A
C2634      F2635   1.357       .  S
C2639      H2646   1.084       .  S
C2639      C2640   1.406       .  A
C2639      C2644   1.393       .  A
C2640      C2641   1.409       .  A
C2641      C2642   1.411       .  A
C2641      F2648   1.356       .  S
C2642      H2647   1.083       .  S
C2642      C2643   1.408       .  A
C2643      C2644   1.405       .  A
C2644      F2645   1.358       .  S
C2649      H2656   1.084       .  S
C2649      C2650   1.403       .  A
C2649      C2654   1.384       .  A
C2650      C2651   1.409       .  A
C2651      C2652   1.409       .  A
C2651      F2658   1.357       .  S
C2652      H2657   1.083       .  S
C2652      C2653   1.407       .  A
C2653      C2654   1.403       .  A
C2654      F2655   1.358       .  S
C2659      H2666   1.083       .  S
C2659      C2660   1.406       .  A
C2659      C2664   1.406       .  A
C2660      C2661   1.407       .  A
C2661      C2662   1.392       .  A
C2661      F2668   1.358       .  S
C2662      H2667   1.083       .  S
C2662      C2663   1.401       .  A
C2663      C2664   1.406       .  A
C2664      F2665   1.357       .  S
C2669      H2676   1.083       .  S
C2669      C2670   1.405       .  A
C2669      C2674   1.407       .  A
C2670      C2671   1.407       .  A
C2671      C2672   1.395       .  A
C2671      F2678   1.358       .  S
C2672      H2677   1.082       .  S
C2672      C2673   1.402       .  A
C2673      C2674   1.407       .  A
C2674      F2675   1.357       .  S
C2679      H2686   1.083       .  S
C2679      C2680   1.403       .  A
C2679      C2684   1.413       .  A
C2680      C2681   1.399       .  A
C2681      C2682   1.378       .  A
C2681      F2688   1.360       .  S
C2682      H2687   1.075       .  S
C2682      C2683   1.413       .  A
C2683      C2684   1.423       .  A
C2684      F2685   1.354       .  S
C2689      H2696   1.083       .  S
C2689      C2690   1.407       .  A
C2689      C2694   1.401       .  A
C2690      C2691   1.403       .  A
C2691      C2692   1.400       .  A
C2691      F2698   1.357       .  S
C2692      H2697   1.083       .  S
C2692      C2693   1.406       .  A
C2693      C2694   1.406       .  A
C2694      F2695   1.357       .  S
C2699      H2706   1.083       .  S
C2699      C2700   1.408       .  A
C2699      C2704   1.406       .  A
C2700      C2701   1.405       .  A
C2701      C2702   1.389       .  A
C2701      F2708   1.350       .  S
C2702      H2707   1.084       .  S
C2702      C2703   1.402       .  A
C2703      C2704   1.406       .  A
C2704      F2705   1.357       .  S
C2709      H2716   1.083       .  S
C2709      C2710   1.402       .  A
C2709      C2714   1.400       .  A
C2710      C2711   1.410       .  A
C2711      C2712   1.400       .  A
C2711      F2718   1.358       .  S
C2712      H2717   1.083       .  S
C2712      C2713   1.403       .  A
C2713      C2714   1.409       .  A
C2714      F2715   1.357       .  S
C2719      H2726   1.083       .  S
C2719      C2720   1.408       .  A
C2719      C2724   1.402       .  A
C2720      C2721   1.404       .  A
C2721      C2722   1.402       .  A
C2721      F2728   1.357       .  S
C2722      H2727   1.083       .  S
C2722      C2723   1.407       .  A
C2723      C2724   1.405       .  A
C2724      F2725   1.357       .  S
C2729      H2736   1.082       .  S
C2729      C2730   1.405       .  A
C2729      C2734   1.402       .  A
C2730      C2731   1.407       .  A
C2731      C2732   1.404       .  A
C2731      F2738   1.357       .  S
C2732      H2737   1.083       .  S
C2732      C2733   1.403       .  A
C2733      C2734   1.409       .  A
C2734      F2735   1.358       .  S
C2739      H2746   1.083       .  S
C2739      C2740   1.405       .  A
C2739      C2744   1.417       .  A
C2740      C2741   1.399       .  A
C2741      C2742   1.377       .  A
C2741      F2748   1.360       .  S
C2742      H2747   1.076       .  S
C2742      C2743   1.415       .  A
C2743      C2744   1.424       .  A
C2744      F2745   1.352       .  S
C2749      H2756   1.083       .  S
C2749      C2750   1.408       .  A
C2749      C2754   1.411       .  A
C2750      C2751   1.409       .  A
C2751      C2752   1.389       .  A
C2751      F2758   1.359       .  S
C2752      H2757   1.084       .  S
C2752      C2753   1.400       .  A
C2753      C2754   1.408       .  A
C2754      F2755   1.356       .  S
C2759      H2766   1.084       .  S
C2759      C2760   1.404       .  A
C2759      C2764   1.385       .  A
C2760      C2761   1.409       .  A
C2761      C2762   1.411       .  A
C2761      F2768   1.356       .  S
C2762      H2767   1.082       .  S
C2762      C2763   1.408       .  A
C2763      C2764   1.402       .  A
C2764      F2765   1.359       .  S
C2769      H2776   1.082       .  S
C2769      C2770   1.410       .  A
C2769      C2774   1.422       .  A
C2770      C2771   1.405       .  A
C2771      C2772   1.374       .  A
C2771      F2778   1.360       .  S
C2772      H2777   1.076       .  S
C2772      C2773   1.409       .  A
C2773      C2774   1.425       .  A
C2774      F2775   1.353       .  S
C2779      H2786   1.083       .  S
C2779      C2780   1.403       .  A
C2779      C2784   1.402       .  A
C2780      C2781   1.409       .  A
C2781      C2782   1.400       .  A
C2781      F2788   1.358       .  S
C2782      H2787   1.083       .  S
C2782      C2783   1.405       .  A
C2783      C2784   1.407       .  A
C2784      F2785   1.356       .  S
C2789      H2796   1.083       .  S
C2789      C2790   1.408       .  A
C2789      C2794   1.406       .  A
C2790      C2791   1.405       .  A
C2791      C2792   1.380       .  A
C2791      F2798   1.359       .  S
C2792      H2797   1.082       .  S
C2792      C2793   1.397       .  A
C2793      C2794   1.405       .  A
C2794      F2795   1.356       .  S
C2799      H2806   1.083       .  S
C2799      C2800   1.403       .  A
C2799      C2804   1.405       .  A
C2800      C2801   1.402       .  A
C2801      C2802   1.389       .  A
C2801      F2808   1.358       .  S
C2802      H2807   1.075       .  S
C2802      C2803   1.402       .  A
C2803      C2804   1.408       .  A
C2804      F2805   1.357       .  S
C2809      H2816   1.083       .  S
C2809      C2810   1.407       .  A
C2809      C2814   1.403       .  A
C2810      C2811   1.405       .  A
C2811      C2812   1.402       .  A
C2811      F2818   1.357       .  S
C2812      H2817   1.083       .  S
C2812      C2813   1.406       .  A
C2813      C2814   1.407       .  A
C2814      F2815   1.357       .  S
C2819      H2826   1.080       .  S
C2819      C2820   1.407       .  A
C2819      C2824   1.398       .  A
C2820      C2821   1.410       .  A
C2821      C2822   1.405       .  A
C2821      F2828   1.357       .  S
C2822      H2827   1.083       .  S
C2822      C2823   1.406       .  A
C2823      C2824   1.405       .  A
C2824      F2825   1.358       .  S
C2829      H2836   1.082       .  S
C2829      C2830   1.405       .  A
C2829      C2834   1.405       .  A
C2830      C2831   1.404       .  A
C2831      C2832   1.390       .  A
C2831      F2838   1.355       .  S
C2832      H2837   1.084       .  S
C2832      C2833   1.404       .  A
C2833      C2834   1.410       .  A
C2834      F2835   1.357       .  S
C2839      H2846   1.083       .  S
C2839      C2840   1.403       .  A
C2839      C2844   1.405       .  A
C2840      C2841   1.403       .  A
C2841      C2842   1.395       .  A
C2841      F2848   1.358       .  S
C2842      H2847   1.077       .  S
C2842      C2843   1.408       .  A
C2843      C2844   1.411       .  A
C2844      F2845   1.357       .  S
C2849      H2856   1.079       .  S
C2849      C2850   1.411       .  A
C2849      C2854   1.405       .  A
C2850      C2851   1.408       .  A
C2851      C2852   1.400       .  A
C2851      F2858   1.357       .  S
C2852      H2857   1.083       .  S
C2852      C2853   1.402       .  A
C2853      C2854   1.405       .  A
C2854      F2855   1.357       .  S
C2859      H2866   1.082       .  S
C2859      C2860   1.415       .  A
C2859      C2864   1.416       .  A
C2860      C2861   1.414       .  A
C2861      C2862   1.378       .  A
C2861      F2868   1.358       .  S
C2862      H2867   1.080       .  S
C2862      C2863   1.399       .  A
C2863      C2864   1.412       .  A
C2864      F2865   1.355       .  S
C2869      H2876   1.083       .  S
C2869      C2870   1.406       .  A
C2869      C2874   1.376       .  A
C2870      C2871   1.411       .  A
C2871      C2872   1.415       .  A
C2871      F2878   1.356       .  S
C2872      H2877   1.082       .  S
C2872      C2873   1.414       .  A
C2873      C2874   1.404       .  A
C2874      F2875   1.354       .  S
C2879      H2886   1.083       .  S
C2879      C2880   1.406       .  A
C2879      C2884   1.407       .  A
C2880      C2881   1.405       .  A
C2881      C2882   1.393       .  A
C2881      F2888   1.357       .  S
C2882      H2887   1.084       .  S
C2882      C2883   1.406       .  A
C2883      C2884   1.406       .  A
C2884      F2885   1.357       .  S
C2889      H2896   1.082       .  S
C2889      C2890   1.407       .  A
C2889      C2894   1.375       .  A
C2890      C2891   1.413       .  A
C2891      C2892   1.415       .  A
C2891      F2898   1.356       .  S
C2892      H2897   1.082       .  S
C2892      C2893   1.412       .  A
C2893      C2894   1.402       .  A
C2894      F2895   1.355       .  S
C2899      H2906   1.084       .  S
C2899      C2900   1.405       .  A
C2899      C2904   1.392       .  A
C2900      C2901   1.406       .  A
C2901      C2902   1.406       .  A
C2901      F2908   1.357       .  S
C2902      H2907   1.083       .  S
C2902      C2903   1.405       .  A
C2903      C2904   1.404       .  A
C2904      F2905   1.357       .  S
C2909      H2916   1.083       .  S
C2909      C2910   1.402       .  A
C2909      C2914   1.400       .  A
C2910      C2911   1.409       .  A
C2911      C2912   1.403       .  A
C2911      F2918   1.357       .  S
C2912      H2917   1.083       .  S
C2912      C2913   1.404       .  A
C2913      C2914   1.408       .  A
C2914      F2915   1.357       .  S
C2919      H2926   1.083       .  S
C2919      C2920   1.400       .  A
C2919      C2924   1.400       .  A
C2920      C2921   1.404       .  A
C2921      C2922   1.402       .  A
C2921      F2928   1.358       .  S
C2922      H2927   1.076       .  S
C2922      C2923   1.410       .  A
C2923      C2924   1.410       .  A
C2924      F2925   1.357       .  S
C2929      H2936   1.084       .  S
C2929      C2930   1.401       .  A
C2929      C2934   1.395       .  A
C2930      C2931   1.405       .  A
C2931      C2932   1.407       .  A
C2931      F2938   1.357       .  S
C2932      H2937   1.083       .  S
C2932      C2933   1.409       .  A
C2933      C2934   1.408       .  A
C2934      F2935   1.352       .  S
C2939      H2946   1.083       .  S
C2939      C2940   1.405       .  A
C2939      C2944   1.405       .  A
C2940      C2941   1.406       .  A
C2941      C2942   1.396       .  A
C2941      F2948   1.358       .  S
C2942      H2947   1.079       .  S
C2942      C2943   1.404       .  A
C2943      C2944   1.408       .  A
C2944      F2945   1.357       .  S
C2949      H2956   1.083       .  S
C2949      C2950   1.401       .  A
C2949      C2954   1.402       .  A
C2950      C2951   1.400       .  A
C2951      C2952   1.396       .  A
C2951      F2958   1.358       .  S
C2952      H2957   1.072       .  S
C2952      C2953   1.411       .  A
C2953      C2954   1.410       .  A
C2954      F2955   1.357       .  S
C2959      H2966   1.084       .  S
C2959      C2960   1.403       .  A
C2959      C2964   1.390       .  A
C2960      C2961   1.409       .  A
C2961      C2962   1.404       .  A
C2961      F2968   1.357       .  S
C2962      H2967   1.083       .  S
C2962      C2963   1.404       .  A
C2963      C2964   1.405       .  A
C2964      F2965   1.355       .  S
C2969      H2976   1.079       .  S
C2969      C2970   1.413       .  A
C2969      C2974   1.375       .  A
C2970      C2971   1.416       .  A
C2971      C2972   1.416       .  A
C2971      F2978   1.355       .  S
C2972      H2977   1.083       .  S
C2972      C2973   1.410       .  A
C2973      C2974   1.396       .  A
C2974      F2975   1.356       .  S
C2979      H2986   1.082       .  S
C2979      C2980   1.406       .  A
C2979      C2984   1.407       .  A
C2980      C2981   1.406       .  A
C2981      C2982   1.399       .  A
C2981      F2988   1.357       .  S
C2982      H2987   1.084       .  S
C2982      C2983   1.407       .  A
C2983      C2984   1.407       .  A
C2984      F2985   1.357       .  S
C2989      H2996   1.083       .  S
C2989      C2990   1.404       .  A
C2989      C2994   1.404       .  A
C2990      C2991   1.406       .  A
C2991      C2992   1.395       .  A
C2991      F2998   1.358       .  S
C2992      H2997   1.079       .  S
C2992      C2993   1.404       .  A
C2993      C2994   1.408       .  A
C2994      F2995   1.356       .  S
C2999      H3006   1.084       .  S
C2999      C3000   1.395       .  A
C2999      C3004   1.396       .  A
C3000      C3001   1.401       .  A
C3001      C3002   1.404       .  A
C3001      F3008   1.357       .  S
C3002      H3007   1.084       .  S
C3002      C3003   1.411       .  A
C3003      C3004   1.418       .  A
C3004      F3005   1.345       .  S
C3009      H3016   1.083       .  S
C3009      C3010   1.405       .  A
C3009      C3014   1.407       .  A
C3010      C3011   1.407       .  A
C3011      C3012   1.392       .  A
C3011      F3018   1.359       .  S
C3012      H3017   1.076       .  S
C3012      C3013   1.402       .  A
C3013      C3014   1.409       .  A
C3014      F3015   1.356       .  S
C3019      H3026   1.083       .  S
C3019      C3020   1.403       .  A
C3019      C3024   1.397       .  A
C3020      C3021   1.410       .  A
C3021      C3022   1.405       .  A
C3021      F3028   1.357       .  S
C3022      H3027   1.083       .  S
C3022      C3023   1.405       .  A
C3023      C3024   1.409       .  A
C3024      F3025   1.358       .  S
C3029      H3036   1.083       .  S
C3029      C3030   1.406       .  A
C3029      C3034   1.406       .  A
C3030      C3031   1.409       .  A
C3031      C3032   1.389       .  A
C3031      F3038   1.358       .  S
C3032      H3037   1.083       .  S
C3032      C3033   1.399       .  A
C3033      C3034   1.407       .  A
C3034      F3035   1.356       .  S
C3039      H3046   1.084       .  S
C3039      C3040   1.402       .  A
C3039      C3044   1.398       .  A
C3040      C3041   1.406       .  A
C3041      C3042   1.405       .  A
C3041      F3048   1.357       .  S
C3042      H3047   1.083       .  S
C3042      C3043   1.410       .  A
C3043      C3044   1.412       .  A
C3044      F3045   1.353       .  S
C3049      H3056   1.083       .  S
C3049      C3050   1.401       .  A
C3049      C3054   1.415       .  A
C3050      C3051   1.399       .  A
C3051      C3052   1.382       .  A
C3051      F3058   1.360       .  S
C3052      H3057   1.076       .  S
C3052      C3053   1.418       .  A
C3053      C3054   1.427       .  A
C3054      F3055   1.352       .  S
C3059      H3066   1.081       .  S
C3059      C3060   1.412       .  A
C3059      C3064   1.420       .  A
C3060      C3061   1.411       .  A
C3061      C3062   1.371       .  A
C3061      F3068   1.360       .  S
C3062      H3067   1.076       .  S
C3062      C3063   1.404       .  A
C3063      C3064   1.422       .  A
C3064      F3065   1.354       .  S
C3069      H3076   1.084       .  S
C3069      C3070   1.402       .  A
C3069      C3074   1.390       .  A
C3070      C3071   1.404       .  A
C3071      C3072   1.406       .  A
C3071      F3078   1.357       .  S
C3072      H3077   1.083       .  S
C3072      C3073   1.407       .  A
C3073      C3074   1.404       .  A
C3074      F3075   1.352       .  S
C3079      H3086   1.083       .  S
C3079      C3080   1.407       .  A
C3079      C3084   1.407       .  A
C3080      C3081   1.406       .  A
C3081      C3082   1.385       .  A
C3081      F3088   1.359       .  S
C3082      H3087   1.079       .  S
C3082      C3083   1.399       .  A
C3083      C3084   1.407       .  A
C3084      F3085   1.356       .  S
C3089      H3096   1.083       .  S
C3089      C3090   1.406       .  A
C3089      C3094   1.408       .  A
C3090      C3091   1.407       .  A
C3091      C3092   1.393       .  A
C3091      F3098   1.358       .  S
C3092      H3097   1.083       .  S
C3092      C3093   1.402       .  A
C3093      C3094   1.408       .  A
C3094      F3095   1.356       .  S
C3099      H3106   1.083       .  S
C3099      C3100   1.407       .  A
C3099      C3104   1.409       .  A
C3100      C3101   1.407       .  A
C3101      C3102   1.389       .  A
C3101      F3108   1.359       .  S
C3102      H3107   1.084       .  S
C3102      C3103   1.401       .  A
C3103      C3104   1.408       .  A
C3104      F3105   1.356       .  S
C3109      H3116   1.083       .  S
C3109      C3110   1.405       .  A
C3109      C3114   1.400       .  A
C3110      C3111   1.405       .  A
C3111      C3112   1.399       .  A
C3111      F3118   1.357       .  S
C3112      H3117   1.083       .  S
C3112      C3113   1.407       .  A
C3113      C3114   1.406       .  A
C3114      F3115   1.357       .  S
C3119      H3126   1.083       .  S
C3119      C3120   1.401       .  A
C3119      C3124   1.400       .  A
C3120      C3121   1.406       .  A
C3121      C3122   1.403       .  A
C3121      F3128   1.357       .  S
C3122      H3127   1.083       .  S
C3122      C3123   1.410       .  A
C3123      C3124   1.408       .  A
C3124      F3125   1.357       .  S
C3129      H3136   1.083       .  S
C3129      C3130   1.403       .  A
C3129      C3134   1.403       .  A
C3130      C3131   1.411       .  A
C3131      C3132   1.400       .  A
C3131      F3138   1.358       .  S
C3132      H3137   1.083       .  S
C3132      C3133   1.402       .  A
C3133      C3134   1.408       .  A
C3134      F3135   1.356       .  S
C3139      H3146   1.084       .  S
C3139      C3140   1.403       .  A
C3139      C3144   1.390       .  A
C3140      C3141   1.407       .  A
C3141      C3142   1.408       .  A
C3141      F3148   1.357       .  S
C3142      H3147   1.083       .  S
C3142      C3143   1.408       .  A
C3143      C3144   1.405       .  A
C3144      F3145   1.354       .  S
C3149      H3156   1.082       .  S
C3149      C3150   1.412       .  A
C3149      C3154   1.416       .  A
C3150      C3151   1.414       .  A
C3151      C3152   1.375       .  A
C3151      F3158   1.358       .  S
C3152      H3157   1.077       .  S
C3152      C3153   1.399       .  A
C3153      C3154   1.415       .  A
C3154      F3155   1.356       .  S
C3159      H3166   1.083       .  S
C3159      C3160   1.405       .  A
C3159      C3164   1.407       .  A
C3160      C3161   1.407       .  A
C3161      C3162   1.397       .  A
C3161      F3168   1.358       .  S
C3162      H3167   1.081       .  S
C3162      C3163   1.404       .  A
C3163      C3164   1.407       .  A
C3164      F3165   1.356       .  S
C3169      H3176   1.083       .  S
C3169      C3170   1.409       .  A
C3169      C3174   1.403       .  A
C3170      C3171   1.412       .  A
C3171      C3172   1.390       .  A
C3171      F3178   1.347       .  S
C3172      H3177   1.084       .  S
C3172      C3173   1.396       .  A
C3173      C3174   1.402       .  A
C3174      F3175   1.357       .  S
C3179      H3186   1.083       .  S
C3179      C3180   1.405       .  A
C3179      C3184   1.408       .  A
C3180      C3181   1.402       .  A
C3181      C3182   1.389       .  A
C3181      F3188   1.358       .  S
C3182      H3187   1.083       .  S
C3182      C3183   1.410       .  A
C3183      C3184   1.410       .  A
C3184      F3185   1.355       .  S
C3189      H3196   1.077       .  S
C3189      C3190   1.407       .  A
C3189      C3194   1.377       .  A
C3190      C3191   1.418       .  A
C3191      C3192   1.414       .  A
C3191      F3198   1.355       .  S
C3192      H3197   1.083       .  S
C3192      C3193   1.407       .  A
C3193      C3194   1.404       .  A
C3194      F3195   1.360       .  S
C3199      H3206   1.083       .  S
C3199      C3200   1.402       .  A
C3199      C3204   1.402       .  A
C3200      C3201   1.405       .  A
C3201      C3202   1.401       .  A
C3201      F3208   1.358       .  S
C3202      H3207   1.079       .  S
C3202      C3203   1.409       .  A
C3203      C3204   1.409       .  A
C3204      F3205   1.357       .  S
C3209      H3216   1.084       .  S
C3209      C3210   1.404       .  A
C3209      C3214   1.393       .  A
C3210      C3211   1.406       .  A
C3211      C3212   1.406       .  A
C3211      F3218   1.357       .  S
C3212      H3217   1.083       .  S
C3212      C3213   1.405       .  A
C3213      C3214   1.405       .  A
C3214      F3215   1.358       .  S
C3219      H3226   1.083       .  S
C3219      C3220   1.408       .  A
C3219      C3224   1.414       .  A
C3220      C3221   1.405       .  A
C3221      C3222   1.376       .  A
C3221      F3228   1.360       .  S
C3222      H3227   1.078       .  S
C3222      C3223   1.405       .  A
C3223      C3224   1.417       .  A
C3224      F3225   1.355       .  S
C3229      H3236   1.083       .  S
C3229      C3230   1.402       .  A
C3229      C3234   1.401       .  A
C3230      C3231   1.411       .  A
C3231      C3232   1.402       .  A
C3231      F3238   1.358       .  S
C3232      H3237   1.083       .  S
C3232      C3233   1.403       .  A
C3233      C3234   1.409       .  A
C3234      F3235   1.357       .  S
C3239      H3246   1.084       .  S
C3239      C3240   1.405       .  A
C3239      C3244   1.394       .  A
C3240      C3241   1.406       .  A
C3241      C3242   1.409       .  A
C3241      F3248   1.356       .  S
C3242      H3247   1.082       .  S
C3242      C3243   1.407       .  A
C3243      C3244   1.405       .  A
C3244      F3245   1.358       .  S
C3249      H3256   1.084       .  S
C3249      C3250   1.396       .  A
C3249      C3254   1.393       .  A
C3250      C3251   1.400       .  A
C3251      C3252   1.402       .  A
C3251      F3258   1.357       .  S
C3252      H3257   1.083       .  S
C3252      C3253   1.409       .  A
C3253      C3254   1.415       .  A
C3254      F3255   1.348       .  S
C3259      H3266   1.083       .  S
C3259      C3260   1.403       .  A
C3259      C3264   1.406       .  A
C3260      C3261   1.402       .  A
C3261      C3262   1.382       .  A
C3261      F3268   1.358       .  S
C3262      H3267   1.083       .  S
C3262      C3263   1.403       .  A
C3263      C3264   1.413       .  A
C3264      F3265   1.356       .  S
C3269      H3276   1.083       .  S
C3269      C3270   1.400       .  A
C3269      C3274   1.400       .  A
C3270      C3271   1.407       .  A
C3271      C3272   1.398       .  A
C3271      F3278   1.358       .  S
C3272      H3277   1.083       .  S
C3272      C3273   1.404       .  A
C3273      C3274   1.407       .  A
C3274      F3275   1.357       .  S
C3279      H3286   1.082       .  S
C3279      C3280   1.406       .  A
C3279      C3284   1.407       .  A
C3280      C3281   1.400       .  A
C3281      C3282   1.384       .  A
C3281      F3288   1.355       .  S
C3282      H3287   1.083       .  S
C3282      C3283   1.406       .  A
C3283      C3284   1.411       .  A
C3284      F3285   1.356       .  S
C3289      H3296   1.083       .  S
C3289      C3290   1.408       .  A
C3289      C3294   1.407       .  A
C3290      C3291   1.408       .  A
C3291      C3292   1.390       .  A
C3291      F3298   1.358       .  S
C3292      H3297   1.080       .  S
C3292      C3293   1.400       .  A
C3293      C3294   1.407       .  A
C3294      F3295   1.356       .  S
C3299      H3306   1.083       .  S
C3299      C3300   1.402       .  A
C3299      C3304   1.404       .  A
C3300      C3301   1.405       .  A
C3301      C3302   1.397       .  A
C3301      F3308   1.358       .  S
C3302      H3307   1.079       .  S
C3302      C3303   1.404       .  A
C3303      C3304   1.408       .  A
C3304      F3305   1.356       .  S
C3309      H3316   1.083       .  S
C3309      C3310   1.404       .  A
C3309      C3314   1.407       .  A
C3310      C3311   1.406       .  A
C3311      C3312   1.393       .  A
C3311      F3318   1.358       .  S
C3312      H3317   1.077       .  S
C3312      C3313   1.402       .  A
C3313      C3314   1.409       .  A
C3314      F3315   1.356       .  S
C3319      H3326   1.083       .  S
C3319      C3320   1.402       .  A
C3319      C3324   1.401       .  A
C3320      C3321   1.410       .  A
C3321      C3322   1.397       .  A
C3321      F3328   1.358       .  S
C3322      H3327   1.083       .  S
C3322      C3323   1.403       .  A
C3323      C3324   1.408       .  A
C3324      F3325   1.356       .  S
C3329      H3336   1.079       .  S
C3329      C3330   1.404       .  A
C3329      C3334   1.395       .  A
C3330      C3331   1.407       .  A
C3331      C3332   1.404       .  A
C3331      F3338   1.357       .  S
C3332      H3337   1.083       .  S
C3332      C3333   1.403       .  A
C3333      C3334   1.404       .  A
C3334      F3335   1.358       .  S
C3339      H3346   1.083       .  S
C3339      C3340   1.405       .  A
C3339      C3344   1.405       .  A
C3340      C3341   1.404       .  A
C3341      C3342   1.387       .  A
C3341      F3348   1.355       .  S
C3342      H3347   1.084       .  S
C3342      C3343   1.404       .  A
C3343      C3344   1.408       .  A
C3344      F3345   1.357       .  S
C3349      H3356   1.083       .  S
C3349      C3350   1.406       .  A
C3349      C3354   1.405       .  A
C3350      C3351   1.406       .  A
C3351      C3352   1.397       .  A
C3351      F3358   1.356       .  S
C3352      H3357   1.084       .  S
C3352      C3353   1.404       .  A
C3353      C3354   1.406       .  A
C3354      F3355   1.357       .  S
C3359      H3366   1.078       .  S
C3359      C3360   1.400       .  A
C3359      C3364   1.390       .  A
C3360      C3361   1.407       .  A
C3361      C3362   1.406       .  A
C3361      F3368   1.357       .  S
C3362      H3367   1.083       .  S
C3362      C3363   1.407       .  A
C3363      C3364   1.406       .  A
C3364      F3365   1.358       .  S
C3369      H3376   1.083       .  S
C3369      C3370   1.405       .  A
C3369      C3374   1.408       .  A
C3370      C3371   1.407       .  A
C3371      C3372   1.390       .  A
C3371      F3378   1.359       .  S
C3372      H3377   1.082       .  S
C3372      C3373   1.401       .  A
C3373      C3374   1.408       .  A
C3374      F3375   1.356       .  S
C3379      H3386   1.084       .  S
C3379      C3380   1.405       .  A
C3379      C3384   1.390       .  A
C3380      C3381   1.409       .  A
C3381      C3382   1.408       .  A
C3381      F3388   1.357       .  S
C3382      H3387   1.082       .  S
C3382      C3383   1.408       .  A
C3383      C3384   1.403       .  A
C3384      F3385   1.352       .  S
C3389      H3396   1.083       .  S
C3389      C3390   1.403       .  A
C3389      C3394   1.405       .  A
C3390      C3391   1.406       .  A
C3391      C3392   1.397       .  A
C3391      F3398   1.358       .  S
C3392      H3397   1.081       .  S
C3392      C3393   1.404       .  A
C3393      C3394   1.408       .  A
C3394      F3395   1.357       .  S
C3399      H3406   1.083       .  S
C3399      C3400   1.403       .  A
C3399      C3404   1.399       .  A
C3400      C3401   1.410       .  A
C3401      C3402   1.400       .  A
C3401      F3408   1.358       .  S
C3402      H3407   1.083       .  S
C3402      C3403   1.403       .  A
C3403      C3404   1.408       .  A
C3404      F3405   1.356       .  S
C3409      H3416   1.083       .  S
C3409      C3410   1.405       .  A
C3409      C3414   1.389       .  A
C3410      C3411   1.409       .  A
C3411      C3412   1.405       .  A
C3411      F3418   1.357       .  S
C3412      H3417   1.082       .  S
C3412      C3413   1.405       .  A
C3413      C3414   1.403       .  A
C3414      F3415   1.355       .  S
C3419      H3426   1.083       .  S
C3419      C3420   1.399       .  A
C3419      C3424   1.398       .  A
C3420      C3421   1.405       .  A
C3421      C3422   1.403       .  A
C3421      F3428   1.358       .  S
C3422      H3427   1.079       .  S
C3422      C3423   1.408       .  A
C3423      C3424   1.409       .  A
C3424      F3425   1.357       .  S
C3429      H3436   1.083       .  S
C3429      C3430   1.410       .  A
C3429      C3434   1.417       .  A
C3430      C3431   1.398       .  A
C3431      C3432   1.377       .  A
C3431      F3438   1.357       .  S
C3432      H3437   1.080       .  S
C3432      C3433   1.411       .  A
C3433      C3434   1.416       .  A
C3434      F3435   1.355       .  S
C3439      H3446   1.083       .  S
C3439      C3440   1.408       .  A
C3439      C3444   1.404       .  A
C3440      C3441   1.404       .  A
C3441      C3442   1.402       .  A
C3441      F3448   1.357       .  S
C3442      H3447   1.083       .  S
C3442      C3443   1.405       .  A
C3443      C3444   1.407       .  A
C3444      F3445   1.356       .  S
C3449      H3456   1.080       .  S
C3449      C3450   1.409       .  A
C3449      C3454   1.381       .  A
C3450      C3451   1.417       .  A
C3451      C3452   1.413       .  A
C3451      F3458   1.355       .  S
C3452      H3457   1.082       .  S
C3452      C3453   1.410       .  A
C3453      C3454   1.403       .  A
C3454      F3455   1.355       .  S
C3459      H3466   1.083       .  S
C3459      C3460   1.402       .  A
C3459      C3464   1.401       .  A
C3460      C3461   1.402       .  A
C3461      C3462   1.402       .  A
C3461      F3468   1.358       .  S
C3462      H3467   1.072       .  S
C3462      C3463   1.412       .  A
C3463      C3464   1.409       .  A
C3464      F3465   1.357       .  S
C3469      H3476   1.084       .  S
C3469      C3470   1.403       .  A
C3469      C3474   1.394       .  A
C3470      C3471   1.404       .  A
C3471      C3472   1.404       .  A
C3471      F3478   1.357       .  S
C3472      H3477   1.083       .  S
C3472      C3473   1.406       .  A
C3473      C3474   1.405       .  A
C3474      F3475   1.355       .  S
C3479      H3486   1.084       .  S
C3479      C3480   1.404       .  A
C3479      C3484   1.386       .  A
C3480      C3481   1.410       .  A
C3481      C3482   1.410       .  A
C3481      F3488   1.356       .  S
C3482      H3487   1.083       .  S
C3482      C3483   1.407       .  A
C3483      C3484   1.403       .  A
C3484      F3485   1.358       .  S
C3489      H3496   1.084       .  S
C3489      C3490   1.401       .  A
C3489      C3494   1.390       .  A
C3490      C3491   1.408       .  A
C3491      C3492   1.410       .  A
C3491      F3498   1.356       .  S
C3492      H3497   1.083       .  S
C3492      C3493   1.407       .  A
C3493      C3494   1.407       .  A
C3494      F3495   1.359       .  S
C3499      H3506   1.083       .  S
C3499      C3500   1.404       .  A
C3499      C3504   1.398       .  A
C3500      C3501   1.408       .  A
C3501      C3502   1.402       .  A
C3501      F3508   1.356       .  S
C3502      H3507   1.083       .  S
C3502      C3503   1.403       .  A
C3503      C3504   1.410       .  A
C3504      F3505   1.358       .  S
C3509      H3516   1.076       .  S
C3509      C3510   1.413       .  A
C3509      C3514   1.380       .  A
C3510      C3511   1.427       .  A
C3511      C3512   1.419       .  A
C3511      F3518   1.352       .  S
C3512      H3517   1.083       .  S
C3512      C3513   1.406       .  A
C3513      C3514   1.404       .  A
C3514      F3515   1.360       .  S
C3519      H3526   1.083       .  S
C3519      C3520   1.409       .  A
C3519      C3524   1.408       .  A
C3520      C3521   1.409       .  A
C3521      C3522   1.395       .  A
C3521      F3528   1.355       .  S
C3522      H3527   1.084       .  S
C3522      C3523   1.404       .  A
C3523      C3524   1.410       .  A
C3524      F3525   1.357       .  S
C3529      H3536   1.083       .  S
C3529      C3530   1.402       .  A
C3529      C3534   1.391       .  A
C3530      C3531   1.407       .  A
C3531      C3532   1.408       .  A
C3531      F3538   1.357       .  S
C3532      H3537   1.083       .  S
C3532      C3533   1.405       .  A
C3533      C3534   1.408       .  A
C3534      F3535   1.359       .  S
C3539      H3546   1.083       .  S
C3539      C3540   1.406       .  A
C3539      C3544   1.415       .  A
C3540      C3541   1.404       .  A
C3541      C3542   1.379       .  A
C3541      F3548   1.360       .  S
C3542      H3547   1.075       .  S
C3542      C3543   1.409       .  A
C3543      C3544   1.421       .  A
C3544      F3545   1.355       .  S
C3549      H3556   1.083       .  S
C3549      C3550   1.403       .  A
C3549      C3554   1.400       .  A
C3550      C3551   1.409       .  A
C3551      C3552   1.404       .  A
C3551      F3558   1.357       .  S
C3552      H3557   1.083       .  S
C3552      C3553   1.404       .  A
C3553      C3554   1.408       .  A
C3554      F3555   1.357       .  S
C3559      H3566   1.084       .  S
C3559      C3560   1.398       .  A
C3559      C3564   1.399       .  A
C3560      C3561   1.401       .  A
C3561      C3562   1.403       .  A
C3561      F3568   1.357       .  S
C3562      H3567   1.084       .  S
C3562      C3563   1.410       .  A
C3563      C3564   1.417       .  A
C3564      F3565   1.348       .  S
C3569      H3576   1.083       .  S
C3569      C3570   1.403       .  A
C3569      C3574   1.402       .  A
C3570      C3571   1.404       .  A
C3571      C3572   1.402       .  A
C3571      F3578   1.357       .  S
C3572      H3577   1.083       .  S
C3572      C3573   1.407       .  A
C3573      C3574   1.413       .  A
C3574      F3575   1.353       .  S
C3579      H3586   1.079       .  S
C3579      C3580   1.411       .  A
C3579      C3584   1.378       .  A
C3580      C3581   1.417       .  A
C3581      C3582   1.413       .  A
C3581      F3588   1.355       .  S
C3582      H3587   1.083       .  S
C3582      C3583   1.409       .  A
C3583      C3584   1.400       .  A
C3584      F3585   1.355       .  S
C3589      H3596   1.084       .  S
C3589      C3590   1.401       .  A
C3589      C3594   1.401       .  A
C3590      C3591   1.401       .  A
C3591      C3592   1.400       .  A
C3591      F3598   1.357       .  S
C3592      H3597   1.084       .  S
C3592      C3593   1.408       .  A
C3593      C3594   1.413       .  A
C3594      F3595   1.353       .  S
C3599      H3606   1.084       .  S
C3599      C3600   1.402       .  A
C3599      C3604   1.389       .  A
C3600      C3601   1.407       .  A
C3601      C3602   1.406       .  A
C3601      F3608   1.357       .  S
C3602      H3607   1.083       .  S
C3602      C3603   1.407       .  A
C3603      C3604   1.406       .  A
C3604      F3605   1.350       .  S
C3609      H3616   1.083       .  S
C3609      C3610   1.407       .  A
C3609      C3614   1.410       .  A
C3610      C3611   1.405       .  A
C3611      C3612   1.390       .  A
C3611      F3618   1.357       .  S
C3612      H3617   1.084       .  S
C3612      C3613   1.405       .  A
C3613      C3614   1.407       .  A
C3614      F3615   1.357       .  S
C3619      H3626   1.083       .  S
C3619      C3620   1.404       .  A
C3619      C3624   1.374       .  A
C3620      C3621   1.410       .  A
C3621      C3622   1.417       .  A
C3621      F3628   1.356       .  S
C3622      H3627   1.081       .  S
C3622      C3623   1.416       .  A
C3623      C3624   1.405       .  A
C3624      F3625   1.354       .  S
C3629      H3636   1.084       .  S
C3629      C3630   1.403       .  A
C3629      C3634   1.394       .  A
C3630      C3631   1.405       .  A
C3631      C3632   1.405       .  A
C3631      F3638   1.357       .  S
C3632      H3637   1.083       .  S
C3632      C3633   1.406       .  A
C3633      C3634   1.406       .  A
C3634      F3635   1.355       .  S
C3639      H3646   1.084       .  S
C3639      C3640   1.402       .  A
C3639      C3644   1.394       .  A
C3640      C3641   1.406       .  A
C3641      C3642   1.403       .  A
C3641      F3648   1.357       .  S
C3642      H3647   1.083       .  S
C3642      C3643   1.407       .  A
C3643      C3644   1.407       .  A
C3644      F3645   1.352       .  S
