geometry optimzed in LAMMPS
_audit_creation_date              2020-11-30 
_audit_creation_method            'lammps2cif' 
_symmetry_space_group_name_H-M    'P1' 
_symmetry_Int_Tables_number       1 
_symmetry_cell_setting            triclinic 
loop_ 
_symmetry_equiv_pos_as_xyz 
  x,y,z 
_cell_length_a                    35.6019244 
_cell_length_b                    37.40521573123637 
_cell_length_c                    35.035966766955234 
_cell_angle_alpha                 89.32717696989069 
_cell_angle_beta                  89.94543494968087 
_cell_angle_gamma                 90.34795129685087 
loop_ 
_atom_site_label 
_atom_site_type_symbol 
_atom_site_fract_x 
_atom_site_fract_y 
_atom_site_fract_z 
_atom_site_charge 
Zn1        Zn  0.78564845  0.73051617  0.77439101     1.49700
Zn2        Zn  0.71016867  0.77127860  0.78987859     1.49400
Zn3        Zn  0.75841684  0.79471492  0.72243806     1.49100
Zn4        Zn  0.71919105  0.72262311  0.72537843     1.49500
O5          O  0.74483389  0.75637216  0.75422071    -1.83400
O6          O  0.78131996  0.72963703  0.83171658    -0.74000
O7          O  0.71297773  0.82322863  0.79762626    -0.73800
O8          O  0.81348307  0.80377259  0.72879304    -0.73400
O9          O  0.71963313  0.74026028  0.83394975    -0.74000
O10         O  0.83212542  0.74927450  0.74720137    -0.73600
O11         O  0.72326193  0.83688602  0.73634220    -0.74200
O12         O  0.75332738  0.71802692  0.68123483    -0.73600
O13         O  0.65820038  0.76591946  0.76859529    -0.74400
O14         O  0.75980113  0.77602808  0.66820705    -0.73800
O15         O  0.67144098  0.74780197  0.71018746    -0.74200
O16         O  0.71707162  0.67724472  0.75913843    -0.74100
O17         O  0.77869613  0.67821911  0.76473610    -0.73900
C18         C  0.74870280  0.72379798  0.84588892     0.77900
C19         C  0.70854358  0.84395670  0.76890985     0.78400
C20         C  0.83816931  0.77907743  0.72993939     0.77300
C21         C  0.76704966  0.74337593  0.66079134     0.77700
C22         C  0.65066257  0.76492267  0.73316207     0.78800
C23         C  0.74737704  0.66292473  0.77153256     0.77900
Zn24       Zn  0.20712054  0.73822472  0.79377063     1.49700
Zn25       Zn  0.28011799  0.78553061  0.80633217     1.49400
Zn26       Zn  0.27289939  0.73281645  0.74007779     1.49100
Zn27       Zn  0.23010580  0.80220289  0.74010022     1.49500
O28         O  0.24758328  0.76433579  0.77105095    -1.83400
O29         O  0.20945490  0.74494264  0.85073949    -0.74000
O30         O  0.33282791  0.78373715  0.78596911    -0.73800
O31         O  0.27597027  0.68667870  0.77160371    -0.73400
O32         O  0.27040130  0.75940961  0.85585901    -0.74000
O33         O  0.21668937  0.68493655  0.79173511    -0.73600
O34         O  0.32171925  0.75994255  0.72920837    -0.74200
O35         O  0.22191774  0.78519614  0.68672768    -0.73600
O36         O  0.27358580  0.83874625  0.80680471    -0.74400
O37         O  0.23865012  0.72814541  0.69373500    -0.73800
O38         O  0.26605605  0.84455728  0.74435407    -0.74200
O39         O  0.17800599  0.81031892  0.75809944    -0.74100
O40         O  0.16052673  0.75371162  0.76404183    -0.73900
C41         C  0.24035766  0.74515087  0.86938998     0.77900
C42         C  0.34130357  0.78014608  0.75085309     0.78400
C43         C  0.24915935  0.67091490  0.78964928     0.77300
C44         C  0.22117335  0.75289643  0.67570873     0.77700
C45         C  0.27992759  0.85578623  0.77561281     0.78800
C46         C  0.15481740  0.78525985  0.75081477     0.77900
N47         N  0.87470570  0.71468187  0.50755353    -0.02700
C48         C  0.86274127  0.69710741  0.47556220    -0.00100
C49         C  0.84527756  0.66530684  0.48551046    -0.23000
C50         C  0.84193425  0.66487242  0.52402857    -0.23200
C51         C  0.85878199  0.69575515  0.53717488    -0.00200
H52         H  0.82962842  0.64796807  0.46665436     0.13500
H53         H  0.82336097  0.64699639  0.53966076     0.13600
N54         N  0.00180585  0.79461301  0.63496132    -0.02700
C55         C  0.02908288  0.81501509  0.65152712    -0.00100
C56         C  0.01453976  0.84736671  0.66302995    -0.23000
C57         C  0.97691344  0.84581475  0.65700686    -0.23200
C58         C  0.96934732  0.81234232  0.64274135    -0.00200
H59         H  0.02857913  0.86751346  0.67986347     0.13500
H60         H  0.95673958  0.86395242  0.66927732     0.13600
N61         N  0.00337282  0.77399435  0.36684938    -0.02700
C62         C  0.03690995  0.78951124  0.35573703    -0.00100
C63         C  0.03149649  0.82240315  0.33895653    -0.23000
C64         C  0.99417334  0.82594609  0.33427716    -0.23200
C65         C  0.97698614  0.79520477  0.34890923    -0.00200
H66         H  0.05253758  0.83898684  0.32493750     0.13500
H67         H  0.98224812  0.84635147  0.31595346     0.13600
N68         N  0.04388472  0.75521456  0.54522458    -0.35900
N69         N  0.96171767  0.76021510  0.54741613    -0.56400
N70         N  0.96148777  0.74386400  0.46294471    -0.35900
N71         N  0.04390886  0.75506544  0.46013768    -0.56400
C72         C  0.03827208  0.77749583  0.57491012     0.27700
C73         C  0.07887041  0.76093602  0.53181143     0.27700
C74         C  0.92621599  0.74994645  0.47566392     0.27700
C75         C  0.96664728  0.76243650  0.42963968     0.27700
C76         C  0.97415739  0.75706546  0.58389956     0.36300
C77         C  0.93334379  0.73618962  0.54322862     0.36300
C78         C  0.07440441  0.73490907  0.46902663     0.36300
C79         C  0.03222235  0.74549800  0.42484481     0.36300
C80         C  0.07015618  0.79893459  0.57877130    -0.21200
C81         C  0.09617489  0.78758292  0.55229868    -0.21200
C82         C  0.90864769  0.77354294  0.45115750    -0.21200
C83         C  0.93417137  0.78201179  0.42261117    -0.21200
C84         C  0.95472763  0.73049742  0.60298971    -0.22200
C85         C  0.92996335  0.71633931  0.57691705    -0.22200
C86         C  0.08072804  0.71131087  0.43927111    -0.22200
C87         C  0.05467985  0.71872181  0.41109057    -0.22200
C88         C  0.00556883  0.77570533  0.59856142    -0.17600
C89         C  0.09548391  0.73971295  0.50362446    -0.17600
C90         C  0.99992420  0.75973183  0.40646078    -0.17600
C91         C  0.91069924  0.73447151  0.50939781    -0.17600
H92         H  0.07473303  0.82121684  0.59730868     0.15300
H93         H  0.12410267  0.79839996  0.54792855     0.15300
H94         H  0.88133534  0.78537078  0.45469227     0.15300
H95         H  0.92912796  0.80214724  0.40115655     0.15300
H96         H  0.95999856  0.72048918  0.63157152     0.13600
H97         H  0.91384235  0.69244084  0.58214368     0.13600
H98         H  0.10005170  0.68944362  0.43784348     0.13600
H99         H  0.05105146  0.70436809  0.38472311     0.13600
H100        H  0.02619883  0.73444150  0.53635780     0.26900
H101        H  0.98016914  0.72573189  0.47556425     0.26900
N102        N  0.12952904  0.71969412  0.51384840    -0.02700
C103        C  0.14802014  0.69707722  0.49032644    -0.00100
C104        C  0.15703031  0.66579768  0.50959814    -0.23000
C105        C  0.14704663  0.67029639  0.54663486    -0.23200
C106        C  0.13353184  0.70470075  0.54949100    -0.00200
H107        H  0.17434416  0.64419493  0.49948638     0.13500
H108        H  0.15668795  0.65341831  0.56992197     0.13600
Zn109      Zn  0.23956989  0.76519903  0.23038311     1.49700
Zn110      Zn  0.24110207  0.70220714  0.28525819     1.49400
Zn111      Zn  0.31054199  0.72109463  0.23608795     1.49100
Zn112      Zn  0.28583017  0.76841085  0.30465222     1.49500
O113        O  0.26994162  0.73910905  0.26444515    -1.83400
O114        O  0.18867747  0.76971310  0.25798305    -0.74000
O115        O  0.24743517  0.66048513  0.25117471    -0.73800
O116        O  0.30289540  0.73857796  0.18301158    -0.73400
O117        O  0.18755599  0.71742951  0.28913958    -0.74000
O118        O  0.24115400  0.73493018  0.18142032    -0.73600
O119        O  0.30570555  0.66752185  0.22898309    -0.74200
O120        O  0.34003093  0.75939938  0.31516361    -0.73600
O121        O  0.25559589  0.69745702  0.33964772    -0.74400
O122        O  0.35814226  0.74268081  0.25708583    -0.73800
O123        O  0.25260408  0.75561915  0.34975525    -0.74200
O124        O  0.28635187  0.81997121  0.28562286    -0.74100
O125        O  0.26785462  0.81244211  0.22529256    -0.73900
C126        C  0.17264276  0.74726532  0.28070454     0.77900
C127        C  0.27431603  0.65079796  0.22963064     0.78400
C128        C  0.27312300  0.72710435  0.16713178     0.77300
C129        C  0.36493856  0.75731767  0.28915580     0.77700
C130        C  0.24444450  0.72349074  0.35976279     0.78800
C131        C  0.28410820  0.83098837  0.25102962     0.77900
Zn132      Zn  0.76699688  0.78371387  0.27817032     1.49700
Zn133      Zn  0.71795194  0.71738448  0.28471535     1.49400
Zn134      Zn  0.70765517  0.77015450  0.21732192     1.49100
Zn135      Zn  0.78055076  0.71946255  0.22434058     1.49500
O136        O  0.74340649  0.74769031  0.24978814    -1.83400
O137        O  0.77882104  0.76576602  0.33005596    -0.74000
O138        O  0.66850904  0.74365572  0.29545555    -0.73800
O139        O  0.70561161  0.82477878  0.22399849    -0.73400
O140        O  0.75306043  0.71138633  0.33037671    -0.74000
O141        O  0.73512934  0.82775266  0.27982842    -0.73600
O142        O  0.65644924  0.75603719  0.23496137    -0.74200
O143        O  0.76907721  0.72111877  0.16667637    -0.73600
O144        O  0.71179013  0.67063062  0.25689912    -0.74400
O145        O  0.71324899  0.74836269  0.16574937    -0.73800
O146        O  0.76955747  0.66668528  0.23359530    -0.74200
O147        O  0.83253297  0.73454853  0.24742291    -0.74100
O148        O  0.81784097  0.79113293  0.25669925    -0.73900
C149        C  0.77532276  0.73465509  0.34449165     0.77900
C150        C  0.64708378  0.75728520  0.26990913     0.78400
C151        C  0.71266048  0.84095078  0.25523029     0.77300
C152        C  0.73733492  0.72766841  0.15072889     0.77700
C153        C  0.73671370  0.65349507  0.23843089     0.78800
C154        C  0.84140556  0.76576829  0.25948501     0.77900
N155        N  0.70639411  0.62510842  0.99276132    -0.02700
C156        C  0.69307268  0.63929772  0.95938507    -0.00100
C157        C  0.66403562  0.66270776  0.96587011    -0.23000
C158        C  0.66047793  0.66531421  0.00418924    -0.23200
C159        C  0.68837332  0.64455893  0.02045880    -0.00200
H160        H  0.65071043  0.68027315  0.94525415     0.13500
H161        H  0.64430258  0.68579380  0.01821724     0.13600
N162        N  0.74921839  0.49644663  0.85884393    -0.02700
C163        C  0.75821420  0.46739216  0.83673946    -0.00100
C164        C  0.76960203  0.47761568  0.80059169    -0.23000
C165        C  0.76624616  0.51340945  0.79837059    -0.23200
C166        C  0.75324386  0.52456526  0.83331135    -0.00200
H167        H  0.77653264  0.46023439  0.77712523     0.13500
H168        H  0.77113869  0.52982002  0.77315518     0.13600
N169        N  0.76396040  0.37521516  0.00116380    -0.02700
C170        C  0.73718358  0.36777076  0.97452353    -0.00100
C171        C  0.70301271  0.36144737  0.99253605    -0.23000
C172        C  0.71111736  0.35672519  0.03022351    -0.23200
C173        C  0.75004572  0.35681430  0.03190813    -0.00200
H174        H  0.67742067  0.35149544  0.97983728     0.13500
H175        H  0.69231605  0.34328982  0.05010166     0.13600
N176        N  0.72230246  0.53712235  0.04246106    -0.35900
N177        N  0.75306191  0.46548270  0.04495620    -0.56400
N178        N  0.75334658  0.46187167  0.95987146    -0.35900
N179        N  0.73712826  0.53771202  0.95490649    -0.56400
C180        C  0.73364183  0.53390782  0.07939610     0.27700
C181        C  0.72874363  0.57155328  0.03112660     0.27700
C182        C  0.77583876  0.43482883  0.97140964     0.27700
C183        C  0.76510335  0.47233053  0.92452787     0.27700
C184        C  0.75163278  0.47125940  0.08320316     0.36300
C185        C  0.76615415  0.43170156  0.04070015     0.36300
C186        C  0.71229347  0.56348383  0.96414781     0.36300
C187        C  0.72672782  0.52505815  0.92015671     0.36300
C188        C  0.74931009  0.56601067  0.09053434    -0.21200
C189        C  0.74663462  0.58935220  0.06012286    -0.21200
C190        C  0.80256352  0.42836088  0.94376092    -0.21200
C191        C  0.79678954  0.45333046  0.91495594    -0.21200
C192        C  0.76791401  0.44320952  0.10253601    -0.22200
C193        C  0.77543888  0.41762067  0.07619456    -0.22200
C194        C  0.68458017  0.56508749  0.93645836    -0.22200
C195        C  0.69419057  0.54140287  0.90819692    -0.22200
C196        C  0.73550315  0.50142130  0.10099008    -0.17600
C197        C  0.71686680  0.58688742  0.99588011    -0.17600
C198        C  0.74617176  0.49760588  0.90096969    -0.17600
C199        C  0.77071210  0.41400396  0.00500656    -0.17600
H200        H  0.76500489  0.57147606  0.11589474     0.15300
H201        H  0.76006456  0.61504172  0.05850627     0.15300
H202        H  0.82466822  0.40864932  0.94502156     0.15300
H203        H  0.81469490  0.45820881  0.89055433     0.15300
H204        H  0.77518612  0.44179640  0.13240970     0.13600
H205        H  0.78760480  0.39223468  0.08318232     0.13600
H206        H  0.65913425  0.58053912  0.93752380     0.13600
H207        H  0.67773652  0.53502669  0.88338659     0.13600
H208        H  0.70871550  0.51741986  0.02660881     0.26900
H209        H  0.72900889  0.47019031  0.97377870     0.26900
N210        N  0.71836551  0.49796500  0.13961015    -0.02700
C211        C  0.69790738  0.46755876  0.14906337    -0.00100
C212        C  0.66252564  0.47590625  0.16160456    -0.23000
C213        C  0.66191543  0.51179548  0.16554141    -0.23200
C214        C  0.69694383  0.52488543  0.15454328    -0.00200
H215        H  0.64216176  0.45754561  0.17404326     0.13500
H216        H  0.64028340  0.52550341  0.18124995     0.13600
Zn217      Zn  0.73568112  0.21575881  0.19834806     1.49700
Zn218      Zn  0.79898062  0.27300954  0.22029049     1.49400
Zn219      Zn  0.72377478  0.26723035  0.26496146     1.49100
Zn220      Zn  0.78155763  0.20871035  0.27027338     1.49500
O221        O  0.75996424  0.24174572  0.23709188    -1.83400
O222        O  0.75634512  0.23457661  0.14890824    -0.74000
O223        O  0.77678134  0.32355340  0.21875557    -0.73800
O224        O  0.67743200  0.23422263  0.26537223    -0.73400
O225        O  0.80879706  0.26411787  0.16394155    -0.74000
O226        O  0.68053694  0.22388118  0.20321359    -0.73600
O227        O  0.71675250  0.31344060  0.23476364    -0.74200
O228        O  0.78278339  0.22841761  0.32237232    -0.73600
O229        O  0.84349005  0.26339478  0.25761655    -0.74400
O230        O  0.74766289  0.27703259  0.31717046    -0.73800
O231        O  0.83507964  0.20480594  0.25723374    -0.74200
O232        O  0.75140615  0.16474631  0.26852239    -0.74100
O233        O  0.73599655  0.16221927  0.20732189    -0.73900
C234        C  0.78491552  0.25339586  0.13920118     0.77900
C235        C  0.74233815  0.33322029  0.21970213     0.78400
C236        C  0.66416194  0.21962861  0.23536442     0.77300
C237        C  0.77154824  0.25796606  0.33539823     0.77700
C238        C  0.85292166  0.23199266  0.26918414     0.78800
C239        C  0.73421933  0.14962353  0.24124024     0.77900
Zn240      Zn  0.71872475  0.22526522  0.79171645     1.49700
Zn241      Zn  0.71920910  0.27575479  0.72588853     1.49400
Zn242      Zn  0.79019567  0.26976083  0.77178661     1.49100
Zn243      Zn  0.76167120  0.20695529  0.71939545     1.49500
O244        O  0.74897834  0.24364128  0.75293857    -1.83400
O245        O  0.66487033  0.22410264  0.77476305    -0.74000
O246        O  0.71703940  0.31889161  0.76127186    -0.73800
O247        O  0.78911062  0.26894019  0.82995590    -0.73400
O248        O  0.67127075  0.24727441  0.71636649    -0.74000
O249        O  0.72834050  0.25575596  0.83753110    -0.73600
O250        O  0.77899219  0.32142615  0.76157796    -0.74200
O251        O  0.81737630  0.19988237  0.72301316    -0.73600
O252        O  0.75047906  0.28370706  0.67859378    -0.74400
O253        O  0.83769161  0.25265169  0.74420899    -0.73800
O254        O  0.75793492  0.22611327  0.66539728    -0.74200
O255        O  0.72724360  0.16411657  0.73312332    -0.74100
O256        O  0.73003726  0.17345433  0.79529657    -0.73900
C257        C  0.65354163  0.22756416  0.74048748     0.77900
C258        C  0.74750416  0.33377622  0.77242236     0.78400
C259        C  0.75840431  0.27122947  0.84876686     0.77300
C260        C  0.84350372  0.22319164  0.72687578     0.77700
C261        C  0.76328012  0.25911681  0.65726508     0.78800
C262        C  0.71800069  0.15516859  0.76731020     0.77900
N263        N  0.61648082  0.00095155  0.78497429    -0.02700
C264        C  0.62642520  0.97085078  0.80524427    -0.00100
C265        C  0.64195755  0.97974506  0.83990159    -0.23000
C266        C  0.64692116  0.01570996  0.83928299    -0.23200
C267        C  0.63297432  0.02819674  0.80475901    -0.00200
H268        H  0.65555858  0.96164608  0.85983175     0.13500
H269        H  0.66373706  0.03032463  0.85963071     0.13600
N270        N  0.49965739  0.87100348  0.69988904    -0.02700
C271        C  0.52911936  0.85548937  0.68076887    -0.00100
C272        C  0.51615972  0.83793124  0.64891212    -0.23000
C273        C  0.47831269  0.83583090  0.65233107    -0.23200
C274        C  0.46877514  0.85398519  0.68510545    -0.00200
H275        H  0.53248385  0.82082326  0.63055479     0.13500
H276        H  0.46070161  0.81807864  0.63588446     0.13600
N277        N  0.38632361  0.00547164  0.76687847    -0.02700
C278        C  0.37603592  0.97879970  0.79179323    -0.00100
C279        C  0.36649014  0.99334912  0.82659793    -0.23000
C280        C  0.36831534  0.02964673  0.82245156    -0.23200
C281        C  0.37852357  0.03672392  0.78509825    -0.00200
H282        H  0.35361606  0.97950136  0.85059049     0.13500
H283        H  0.35790586  0.04870228  0.84287599     0.13600
N284        N  0.53279417  0.04399248  0.73685038    -0.35900
N285        N  0.53143674  0.96135782  0.74108074    -0.56400
N286        N  0.45177294  0.95411085  0.73434375    -0.35900
N287        N  0.44638142  0.05261627  0.73519238    -0.56400
C288        C  0.55813597  0.03518955  0.76418877     0.27700
C289        C  0.52224532  0.07843499  0.74245996     0.27700
C290        C  0.46332315  0.92790139  0.71057227     0.27700
C291        C  0.41963317  0.96801389  0.71976075     0.27700
C292        C  0.56767156  0.97313315  0.74290190     0.36300
C293        C  0.53146858  0.92933587  0.72263581     0.36300
C294        C  0.46347803  0.07513145  0.71023697     0.36300
C295        C  0.42436870  0.03100054  0.71432131     0.36300
C296        C  0.56086033  0.06386607  0.78912678    -0.21200
C297        C  0.53947549  0.09154490  0.77450378    -0.21200
C298        C  0.43814983  0.92598025  0.68025902    -0.21200
C299        C  0.41095177  0.95144578  0.68596479    -0.21200
C300        C  0.59046539  0.94997498  0.72358486    -0.22200
C301        C  0.56794125  0.92266583  0.71083278    -0.22200
C302        C  0.45269221  0.06765362  0.67321285    -0.22200
C303        C  0.42852891  0.03867900  0.67577738    -0.22200
C304        C  0.58057973  0.00335832  0.76382898    -0.17600
C305        C  0.49454056  0.09617629  0.72064518    -0.17600
C306        C  0.40538250  0.00146227  0.73034568    -0.17600
C307        C  0.49828464  0.90897767  0.71273759    -0.17600
H308        H  0.57511188  0.06480289  0.81622815     0.15300
H309        H  0.53470912  0.11706855  0.78775425     0.15300
H310        H  0.44089591  0.91053467  0.65453215     0.15300
H311        H  0.38889693  0.95879261  0.66618895     0.15300
H312        H  0.61997681  0.95353558  0.71722835     0.13600
H313        H  0.57764144  0.90315453  0.69132145     0.13600
H314        H  0.46383631  0.07939992  0.64716834     0.13600
H315        H  0.41597216  0.02453271  0.65219435     0.13600
H316        H  0.52477656  0.02824389  0.71381038     0.26900
H317        H  0.46507883  0.96290154  0.75900121     0.26900
N318        N  0.50114866  0.13148562  0.70332989    -0.02700
C319        C  0.53391137  0.13863929  0.68443508    -0.00100
C320        C  0.52586719  0.15247387  0.64848171    -0.23000
C321        C  0.48815994  0.15855225  0.64725573    -0.23200
C322        C  0.47389120  0.14795339  0.68220705    -0.00200
H323        H  0.54562438  0.16478296  0.62878101     0.13500
H324        H  0.47441940  0.17564283  0.62646178     0.13600
Zn325      Zn  0.30283612  0.24399112  0.78209302     1.49700
Zn326      Zn  0.25832898  0.22234074  0.70830846     1.49400
Zn327      Zn  0.22660973  0.28025884  0.76158163     1.49100
Zn328      Zn  0.29670787  0.29377317  0.71724868     1.49500
O329        O  0.26993296  0.25848987  0.74279431    -1.83400
O330        O  0.30252841  0.19018301  0.78355924    -0.74000
O331        O  0.20312324  0.21075933  0.71166665    -0.73800
O332        O  0.22549347  0.26668032  0.81663576    -0.73400
O333        O  0.29351477  0.18032392  0.72133973    -0.74000
O334        O  0.28631998  0.27289628  0.82850778    -0.73600
O335        O  0.18192823  0.26415456  0.72866583    -0.74200
O336        O  0.29671945  0.33515032  0.75486310    -0.73600
O337        O  0.25965391  0.24465328  0.65504679    -0.74400
O338        O  0.23517277  0.33352042  0.76567922    -0.73800
O339        O  0.26541768  0.30169606  0.67081879    -0.74200
O340        O  0.34526458  0.26851382  0.70545824    -0.74100
O341        O  0.35648632  0.25317521  0.76555295    -0.73900
C342        C  0.30733651  0.17107177  0.75384753     0.77900
C343        C  0.17741571  0.23443217  0.71131970     0.78400
C344        C  0.25212160  0.28003374  0.83650228     0.77300
C345        C  0.26730967  0.34805875  0.77057524     0.77700
C346        C  0.25287887  0.27776394  0.64850407     0.78800
C347        C  0.36525942  0.25232837  0.73031790     0.77900
N348        N  0.28205946  0.62749051  0.01054034    -0.02700
C349        C  0.29463198  0.64670136  0.97960027    -0.00100
C350        C  0.33155399  0.65718151  0.98565698    -0.23000
C351        C  0.33839745  0.65188788  0.02348591    -0.23200
C352        C  0.30597345  0.63712507  0.03902047    -0.00200
H353        H  0.34794112  0.67495939  0.96746390     0.15100
H354        H  0.36053296  0.66558951  0.03871697     0.13600
N355        N  0.27965917  0.50401973  0.86521324    -0.02700
C356        C  0.29011240  0.53352888  0.84424244    -0.00100
C357        C  0.31500005  0.52477778  0.81582761    -0.23000
C358        C  0.31976614  0.48878962  0.81814170    -0.23200
C359        C  0.29727078  0.47623389  0.84764925    -0.00200
H360        H  0.32597329  0.54238292  0.79369454     0.13500
H361        H  0.33412556  0.47282464  0.79713904     0.13600
N362        N  0.20889882  0.37577882  0.99026584    -0.02700
C363        C  0.19441590  0.36278940  0.95680079    -0.00100
C364        C  0.16099141  0.34486839  0.96334271    -0.23000
C365        C  0.15532581  0.34441393  0.00151482    -0.23200
C366        C  0.18607852  0.36085501  0.01794951    -0.00200
H367        H  0.14522927  0.32890745  0.94331105     0.13500
H368        H  0.13472612  0.32760262  0.01589392     0.13600
N369        N  0.26409372  0.53555067  0.04696061    -0.35900
N370        N  0.26855343  0.53975026  0.96319086    -0.56400
N371        N  0.25217866  0.46229548  0.95669900    -0.35900
N372        N  0.23407698  0.45953855  0.04019233    -0.56400
C373        C  0.25594536  0.56978481  0.03683217     0.27700
C374        C  0.24212495  0.52645611  0.07704820     0.27700
C375        C  0.24642611  0.47739487  0.92185537     0.27700
C376        C  0.22576777  0.43651465  0.96190656     0.27700
C377        C  0.28778021  0.56843818  0.97616308     0.36300
C378        C  0.28561414  0.52954280  0.93066421     0.36300
C379        C  0.24887018  0.46230378  0.07581348     0.36300
C380        C  0.23880354  0.42522709  0.02885161     0.36300
C381        C  0.22734306  0.58228784  0.05960778    -0.21200
C382        C  0.21742941  0.55414598  0.08377352    -0.21200
C383        C  0.21497797  0.46259931  0.90531356    -0.21200
C384        C  0.20136833  0.43739357  0.93103808    -0.21200
C385        C  0.31864697  0.57507263  0.95288971    -0.22200
C386        C  0.31743205  0.55007973  0.92432115    -0.22200
C387        C  0.26568629  0.43024679  0.08537802    -0.22200
C388        C  0.25856793  0.40661475  0.05628705    -0.22200
C389        C  0.27464428  0.58892927  0.00732259    -0.17600
C390        C  0.24574218  0.49390516  0.09826248    -0.17600
C391        C  0.22567365  0.41191220  0.99338342    -0.17600
C392        C  0.26974599  0.50413676  0.90572060    -0.17600
H393        H  0.21370919  0.60799420  0.05751981     0.15300
H394        H  0.19386013  0.55347729  0.10311659     0.15300
H395        H  0.20184367  0.47069591  0.87885226     0.15300
H396        H  0.17528329  0.42299566  0.92812429     0.15300
H397        H  0.34057691  0.59474249  0.95633338     0.13600
H398        H  0.33788095  0.54714222  0.90177027     0.13600
H399        H  0.28438291  0.42500933  0.10854286     0.13600
H400        H  0.26980733  0.38007705  0.05425813     0.13600
H401        H  0.28581187  0.52000641  0.03584989     0.26900
H402        H  0.27500400  0.46731682  0.97460303     0.26900
N403        N  0.24096008  0.49346506  0.14047402    -0.02700
C404        C  0.23687536  0.52291775  0.16355639    -0.00100
C405        C  0.22091759  0.51423325  0.19826078    -0.23000
C406        C  0.21570846  0.47873882  0.19873268    -0.23200
C407        C  0.22887344  0.46603461  0.16442582    -0.00200
H408        H  0.21588906  0.53193739  0.22195167     0.13500
H409        H  0.20649051  0.46309557  0.22326610     0.13600
N410        N  0.50574437  0.87573805  0.28234327    -0.02700
C411        C  0.53871814  0.86985477  0.30140435    -0.00100
C412        C  0.53254148  0.87767342  0.33963960    -0.23000
C413        C  0.49506929  0.87162432  0.34516987    -0.23200
C414        C  0.48096059  0.86413338  0.30928439    -0.00200
H415        H  0.55285572  0.87809822  0.36253787     0.13500
H416        H  0.48201317  0.86668693  0.37261931     0.13600
N417        N  0.63020370  0.00366317  0.28016610    -0.02700
C418        C  0.64356859  0.97388170  0.29917736    -0.00100
C419        C  0.66480192  0.98372788  0.33035111    -0.23000
C420        C  0.66897173  0.01963174  0.32846257    -0.23200
C421        C  0.64888367  0.03132881  0.29712164    -0.00200
H422        H  0.68161220  0.96628053  0.34825256     0.13500
H423        H  0.68922084  0.03469061  0.34486088     0.13600
N424        N  0.36458765  0.99228476  0.21165854    -0.02700
C425        C  0.35411782  0.96072479  0.19474777    -0.00100
C426        C  0.33827221  0.96692121  0.15933285    -0.23000
C427        C  0.33620255  0.00279970  0.15447285    -0.23200
C428        C  0.35030875  0.01780362  0.18723716    -0.00200
H429        H  0.32393369  0.94757415  0.14169611     0.13500
H430        H  0.31989020  0.01619859  0.13256466     0.13600
N431        N  0.45577009  0.03958080  0.22927542    -0.35900
N432        N  0.45757820  0.96009511  0.24395555    -0.56400
N433        N  0.53732585  0.96740700  0.26206358    -0.35900
N434        N  0.53906825  0.04467852  0.24474665    -0.56400
C435        C  0.41869000  0.03133114  0.23354997     0.27700
C436        C  0.45996322  0.07506442  0.23680308     0.27700
C437        C  0.53152537  0.93268004  0.25337135     0.27700
C438        C  0.57269084  0.97607412  0.25088388     0.27700
C439        C  0.42038024  0.96727614  0.24683970     0.36300
C440        C  0.46438847  0.93071187  0.26623331     0.36300
C441        C  0.52606982  0.07712452  0.25489355     0.36300
C442        C  0.56974295  0.03824530  0.26681409     0.36300
C443        C  0.40022117  0.06087253  0.24713245    -0.21200
C444        C  0.42585574  0.08831881  0.24872204    -0.21200
C445        C  0.56293418  0.91993046  0.23480811    -0.21200
C446        C  0.58801810  0.94782608  0.23175069    -0.21200
C447        C  0.40390068  0.94441111  0.27291248    -0.22200
C448        C  0.43120347  0.92132354  0.28518367    -0.22200
C449        C  0.54708022  0.09078818  0.28434037    -0.22200
C450        C  0.57403219  0.06576214  0.29258401    -0.22200
C451        C  0.40172905  0.99689719  0.23020023    -0.17600
C452        C  0.49454580  0.09437650  0.23899834    -0.17600
C453        C  0.59199210  0.00673204  0.26370839    -0.17600
C454        C  0.50009810  0.91249728  0.26657904    -0.17600
H455        H  0.37252666  0.06153156  0.25952974     0.15300
H456        H  0.42072114  0.11322490  0.26261884     0.15300
H457        H  0.56808157  0.89376690  0.22423923     0.15300
H458        H  0.61418571  0.94729663  0.21659667     0.15300
H459        H  0.37589603  0.94606494  0.28449965     0.13600
H460        H  0.42589138  0.90141724  0.30690530     0.13600
H461        H  0.54191066  0.11517614  0.29976614     0.13600
H462        H  0.59209907  0.06660032  0.31701179     0.13600
H463        H  0.47668022  0.02234385  0.21990669     0.26900
H464        H  0.52003239  0.98276170  0.27948276     0.26900
N465        N  0.49855742  0.13154295  0.22479499    -0.02700
C466        C  0.47255643  0.14735175  0.20124589    -0.00100
C467        C  0.48944475  0.16165702  0.16881189    -0.23000
C468        C  0.52681785  0.15820968  0.17340407    -0.23200
C469        C  0.53196925  0.14183115  0.20835461    -0.00200
H470        H  0.47661336  0.17845549  0.14714915     0.13500
H471        H  0.54801863  0.17159617  0.15614676     0.13600
N472        N  0.86589278  0.28805671  0.50039594    -0.02700
C473        C  0.84759860  0.30605528  0.47176617    -0.00100
C474        C  0.83329341  0.33776794  0.48521458    -0.23000
C475        C  0.83996140  0.33813399  0.52340368    -0.23200
C476        C  0.85685004  0.30600205  0.53284091    -0.00200
H477        H  0.81512131  0.35628363  0.47024077     0.13500
H478        H  0.82621175  0.35609145  0.54293263     0.13600
N479        N  0.00696640  0.21729281  0.62322954    -0.02700
C480        C  0.04041811  0.20012146  0.63048864    -0.00100
C481        C  0.03437212  0.16565894  0.64303863    -0.23000
C482        C  0.99726840  0.16273964  0.65034070    -0.23200
C483        C  0.98086988  0.19523864  0.64063752    -0.00200
H484        H  0.05538962  0.14735424  0.65389447     0.13500
H485        H  0.98553141  0.14094628  0.66706991     0.13600
N486        N  0.00118317  0.21926201  0.39131810    -0.02700
C487        C  0.97091868  0.20095189  0.37814377    -0.00100
C488        C  0.97991508  0.16502904  0.37627722    -0.23000
C489        C  0.01741730  0.16219957  0.38466993    -0.23200
C490        C  0.03083277  0.19656878  0.38990338    -0.00200
H491        H  0.96301175  0.14397727  0.36395370     0.13500
H492        H  0.03428472  0.13905282  0.37815130     0.13600
N493        N  0.95829116  0.25733146  0.53489169    -0.35900
N494        N  0.04523004  0.25431779  0.53324650    -0.56400
N495        N  0.05353093  0.25552063  0.45110492    -0.35900
N496        N  0.94934724  0.25294722  0.44950026    -0.56400
C497        C  0.96654828  0.23506678  0.56472486     0.27700
C498        C  0.92122865  0.25321672  0.52604687     0.27700
C499        C  0.07847493  0.28056597  0.46274036     0.27700
C500        C  0.03474992  0.26983676  0.42103931     0.27700
C501        C  0.03287668  0.25534498  0.57009564     0.36300
C502        C  0.07904039  0.27204588  0.53164251     0.36300
C503        C  0.92400995  0.27687950  0.46200618     0.36300
C504        C  0.96823383  0.26926533  0.42082996     0.36300
C505        C  0.93419897  0.21493727  0.57254613    -0.21200
C506        C  0.90550975  0.22748072  0.54943517    -0.21200
C507        C  0.07441888  0.31121719  0.44058223    -0.21200
C508        C  0.04664060  0.30450795  0.41439579    -0.21200
C509        C  0.05754957  0.27517769  0.59143345    -0.22200
C510        C  0.08631449  0.28574453  0.56764873    -0.22200
C511        C  0.92663849  0.30843310  0.44106587    -0.22200
C512        C  0.95569205  0.30390795  0.41563954    -0.22200
C513        C  0.00160956  0.23584881  0.58577125    -0.17600
C514        C  0.90283628  0.27137084  0.49555952    -0.17600
C515        C  0.00158160  0.25525455  0.40619345    -0.17600
C516        C  0.09985285  0.27953176  0.49683840    -0.17600
H517        H  0.93093069  0.19197531  0.59094403     0.15300
H518        H  0.87722508  0.21687135  0.54802038     0.15300
H519        H  0.08743457  0.33699227  0.44527225     0.15300
H520        H  0.03513036  0.32351580  0.39412943     0.15300
H521        H  0.05423338  0.28267105  0.62095629     0.13600
H522        H  0.10713834  0.30462404  0.57640423     0.13600
H523        H  0.91203152  0.33321439  0.44601312     0.13600
H524        H  0.96704514  0.32406274  0.39641458     0.13600
H525        H  0.97623102  0.27613777  0.52246162     0.26900
H526        H  0.04811384  0.23073805  0.46406932     0.26900
N527        N  0.13874646  0.29457190  0.49556890    -0.02700
C528        C  0.15403701  0.30830747  0.46230805    -0.00100
C529        C  0.16930772  0.34165685  0.46829366    -0.23000
C530        C  0.16813079  0.34707149  0.50645190    -0.23200
C531        C  0.15341632  0.31617219  0.52311743    -0.00200
H532        H  0.18602184  0.35730525  0.44830949     0.13500
H533        H  0.18450799  0.36762240  0.52033877     0.13600
Zn534      Zn  0.23520568  0.19982818  0.27956705     1.49700
Zn535      Zn  0.27941841  0.26765604  0.26621518     1.49400
Zn536      Zn  0.26347702  0.22371522  0.19761579     1.49100
Zn537      Zn  0.20077068  0.26730634  0.23690077     1.49500
O538        O  0.24285303  0.23776638  0.24389816    -1.83400
O539        O  0.24728004  0.21698079  0.33336129    -0.74000
O540        O  0.32853402  0.24055932  0.26069050    -0.73800
O541        O  0.26514114  0.16954166  0.19664561    -0.73400
O542        O  0.25813051  0.27402625  0.31878053    -0.74000
O543        O  0.26231875  0.15557214  0.25894437    -0.73600
O544        O  0.31760317  0.23677465  0.19902974    -0.74200
O545        O  0.18862066  0.27446389  0.18099178    -0.73600
O546        O  0.27593003  0.31357272  0.23519747    -0.74400
O547        O  0.23942013  0.25181651  0.15373384    -0.73800
O548        O  0.21600300  0.31717037  0.25014265    -0.74200
O549        O  0.15974002  0.24790907  0.27130547    -0.74100
O550        O  0.18022471  0.19306256  0.28682297    -0.73900
C551        C  0.24482268  0.25012288  0.34138209     0.77900
C552        C  0.33865867  0.23056881  0.22750875     0.78400
C553        C  0.27049822  0.14749950  0.22441024     0.77300
C554        C  0.21012573  0.27145097  0.15206643     0.77700
C555        C  0.24478153  0.33026061  0.23341065     0.78800
C556        C  0.15576888  0.21779117  0.28855376     0.77900
C557        C  0.19472133  0.25896864  0.43775436    -0.08400
C558        C  0.16976336  0.28725403  0.42995872     0.07800
C559        C  0.16958289  0.30176529  0.39251765    -0.02200
C560        C  0.19446682  0.28917274  0.36494932    -0.06600
C561        C  0.22024151  0.26188646  0.37318312     0.06900
C562        C  0.21938222  0.24590591  0.40975431    -0.01700
Br563      Br  0.25376887  0.20887360  0.42401594    -0.01400
H564        H  0.19745833  0.24882668  0.46638715     0.10800
H565        H  0.19375984  0.30112241  0.33662494     0.08800
Br566      Br  0.13813080  0.34096479  0.37755613    -0.01800
C567        C  0.13065830  0.20390276  0.35285116    -0.08400
C568        C  0.12375118  0.21261009  0.31429895     0.07800
C569        C  0.08686404  0.21796568  0.30187342    -0.02200
C570        C  0.05746600  0.21442801  0.32785709    -0.06600
C571        C  0.06402799  0.20611351  0.36654689     0.06900
C572        C  0.10103361  0.20039671  0.37897813    -0.01700
Br573      Br  0.11226168  0.18646544  0.43049763    -0.01400
H574        H  0.15920549  0.19988782  0.36264652     0.10800
H575        H  0.02903746  0.21587719  0.31720968     0.08800
Br576      Br  0.07504207  0.22666308  0.24916574    -0.01800
C577        C  0.40994610  0.16848329  0.18306556    -0.08400
C578        C  0.43592202  0.16323081  0.21257834     0.07800
C579        C  0.42950239  0.18039269  0.24779098    -0.02200
C580        C  0.39770400  0.20209091  0.25232298    -0.06600
C581        C  0.37326637  0.20917593  0.22158870     0.06900
C582        C  0.38056324  0.19251016  0.18619714    -0.01700
Br583      Br  0.35461569  0.20250413  0.13898025    -0.01400
H584        H  0.41454399  0.15600998  0.15571281     0.10800
H585        H  0.39261753  0.21412225  0.27980182     0.08800
Br586      Br  0.46258533  0.17550349  0.29069821    -0.01800
C587        C  0.31616835  0.11332794  0.18585740    -0.08400
C588        C  0.28994895  0.11328708  0.21596106     0.07800
C589        C  0.28500099  0.08148052  0.23765437    -0.02200
C590        C  0.30601479  0.05096973  0.22892397    -0.06600
C591        C  0.33262593  0.05159380  0.19925781     0.06900
C592        C  0.33736058  0.08310767  0.17749570    -0.01700
Br593      Br  0.37250284  0.08605514  0.13595026    -0.01400
H594        H  0.32056476  0.13720753  0.16877638     0.10800
H595        H  0.30105577  0.02639063  0.24485871     0.08800
Br596      Br  0.24826195  0.07697288  0.27748668    -0.01800
C597        C  0.20478567  0.40562460  0.17141502    -0.08400
C598        C  0.23659308  0.42719443  0.16477863     0.07800
C599        C  0.27156383  0.41485899  0.17888819    -0.02200
C600        C  0.27390810  0.38226727  0.19882343    -0.06600
C601        C  0.24134434  0.36344939  0.20974335     0.06900
C602        C  0.20625617  0.37623366  0.19643725    -0.01700
Br603      Br  0.15871220  0.36013073  0.21641654    -0.01400
H604        H  0.17741736  0.41569867  0.16322204     0.10800
H605        H  0.30111360  0.37336678  0.20881682     0.08800
Br606      Br  0.31630410  0.44361734  0.17678252    -0.01800
C607        C  0.17097028  0.34305485  0.08426247    -0.08400
C608        C  0.19813171  0.34438787  0.05507358     0.07800
C609        C  0.22831493  0.31993933  0.05754568    -0.02200
C610        C  0.23163620  0.29679289  0.08915730    -0.06600
C611        C  0.20355501  0.29443133  0.11737120     0.06900
C612        C  0.17209665  0.31715421  0.11349278    -0.01700
Br613      Br  0.12649636  0.31029224  0.14199672    -0.01400
H614        H  0.14612500  0.35951196  0.08165030     0.10800
H615        H  0.25586247  0.27946860  0.09077467     0.08800
Br616      Br  0.26390716  0.31322492  0.01735608    -0.01800
C617        C  0.10849383  0.24269552  0.70081031    -0.08400
C618        C  0.14255789  0.22795725  0.68876063     0.07800
C619        C  0.14271930  0.20799569  0.65459566    -0.02200
C620        C  0.10967060  0.20381857  0.63337943    -0.06600
C621        C  0.07515880  0.21676322  0.64650914     0.06900
C622        C  0.07489080  0.23590929  0.68119626    -0.01700
Br623      Br  0.02966300  0.24863863  0.70697306    -0.01400
H624        H  0.10752406  0.25748882  0.72719370     0.10800
H625        H  0.11029352  0.18758723  0.60796384     0.08800
Br626      Br  0.18607524  0.18331804  0.63604771    -0.01800
C627        C  0.18347354  0.32874115  0.58559416    -0.08400
C628        C  0.17367145  0.30308145  0.55822669     0.07800
C629        C  0.18848959  0.26828350  0.56269685    -0.02200
C630        C  0.21598460  0.26162546  0.59048522    -0.06600
C631        C  0.22739240  0.28797358  0.61643497     0.06900
C632        C  0.20992378  0.32186670  0.61408029    -0.01700
Br633      Br  0.21993985  0.36086802  0.64803154    -0.01400
H634        H  0.17108866  0.35510806  0.58412368     0.10800
H635        H  0.22806738  0.23520109  0.59217810     0.08800
Br636      Br  0.17108876  0.22759881  0.53491832    -0.01800
C637        C  0.30284197  0.38139460  0.82028158    -0.08400
C638        C  0.27078816  0.37881761  0.79699292     0.07800
C639        C  0.24238752  0.40476177  0.80107081    -0.02200
C640        C  0.24893711  0.43492467  0.82356116    -0.06600
C641        C  0.28270157  0.43926477  0.84374068     0.06900
C642        C  0.30843997  0.41084117  0.84406430    -0.01700
Br643      Br  0.35375140  0.41347780  0.87343358    -0.01400
H644        H  0.32402794  0.36074734  0.81947920     0.10800
H645        H  0.22938286  0.45687214  0.82159676     0.08800
Br646      Br  0.19588566  0.40306241  0.77346415    -0.01800
C647        C  0.20861572  0.32617843  0.85974486    -0.08400
C648        C  0.24243783  0.30766665  0.86517106     0.07800
C649        C  0.26588218  0.31815444  0.89572926    -0.02200
C650        C  0.25234158  0.34224753  0.92306176    -0.06600
C651        C  0.21555232  0.35547684  0.92085699     0.06900
C652        C  0.19551699  0.35029749  0.88653773    -0.01700
Br653      Br  0.14846285  0.37315212  0.87547471    -0.01400
H654        H  0.19153688  0.32135787  0.83473040     0.10800
H655        H  0.26950285  0.34831146  0.94754144     0.08800
Br656      Br  0.31496741  0.29865805  0.90372698    -0.01800
C657        C  0.45302487  0.19482172  0.72771458    -0.08400
C658        C  0.44375642  0.17038200  0.69889280     0.07800
C659        C  0.40904057  0.17424861  0.68007896    -0.02200
C660        C  0.38502712  0.20236668  0.68940301    -0.06600
C661        C  0.39457372  0.22704495  0.71781959     0.06900
C662        C  0.42889168  0.22291303  0.73721122    -0.01700
Br663      Br  0.44528704  0.25659026  0.77465012    -0.01400
H664        H  0.47995824  0.19342285  0.74157169     0.10800
H665        H  0.35818006  0.20435245  0.67501396     0.08800
Br666      Br  0.39322315  0.14164169  0.64134636    -0.01800
C667        C  0.37936804  0.10273677  0.78802491    -0.08400
C668        C  0.36879865  0.07216985  0.76765025     0.07800
C669        C  0.34116390  0.07599477  0.73884972    -0.02200
C670        C  0.32254130  0.10871575  0.73375719    -0.06600
C671        C  0.33033312  0.13801317  0.75719004     0.06900
C672        C  0.36055372  0.13523186  0.78326530    -0.01700
Br673      Br  0.37774415  0.17441468  0.81379237    -0.01400
H674        H  0.40077419  0.10061559  0.80989820     0.10800
H675        H  0.30037980  0.11062059  0.71267944     0.08800
Br676      Br  0.32425729  0.03731338  0.70790020    -0.01800
C677        C  0.68134638  0.10130636  0.74538242    -0.08400
C678        C  0.69120837  0.12503510  0.77477043     0.07800
C679        C  0.67295367  0.12076623  0.81049374    -0.02200
C680        C  0.65057696  0.09080990  0.81755212    -0.06600
C681        C  0.64512629  0.06428385  0.79005350     0.06900
C682        C  0.65796149  0.07143915  0.75249535    -0.01700
Br683      Br  0.64484993  0.04246936  0.70968302    -0.01400
H684        H  0.69232329  0.10559635  0.71684629     0.10800
H685        H  0.63855524  0.08738289  0.84579716     0.08800
Br686      Br  0.67596677  0.15429162  0.85170469    -0.01800
C687        C  0.81695601  0.29425035  0.63168757    -0.08400
C688        C  0.78844519  0.26889425  0.62520810     0.07800
C689        C  0.78674777  0.25192737  0.58962392    -0.02200
C690        C  0.81233997  0.26156204  0.56084399    -0.06600
C691        C  0.84005516  0.28793008  0.56676748     0.06900
C692        C  0.84248131  0.30385963  0.60291706    -0.01700
Br693      Br  0.87812247  0.34120618  0.61312054    -0.01400
H694        H  0.81920802  0.30694245  0.65924520     0.10800
H695        H  0.80848630  0.25048949  0.53279803     0.08800
Br696      Br  0.74742975  0.21866494  0.57741458    -0.01800
C697        C  0.62902124  0.18206632  0.69624426    -0.08400
C698        C  0.62249543  0.20422099  0.72763288     0.07800
C699        C  0.58940917  0.19908958  0.74909233    -0.02200
C700        C  0.56227602  0.17437786  0.73706560    -0.06600
C701        C  0.56745689  0.15409242  0.70391225     0.06900
C702        C  0.60233659  0.15667963  0.68489968    -0.01700
Br703      Br  0.61492148  0.12574312  0.64354159    -0.01400
H704        H  0.65549156  0.18385974  0.68102140     0.10800
H705        H  0.53635248  0.17233955  0.75286190     0.08800
Br706      Br  0.57873637  0.22683969  0.79346196    -0.01800
C707        C  0.90160432  0.24584155  0.69318974    -0.08400
C708        C  0.88006906  0.21677668  0.70736264     0.07800
C709        C  0.89074583  0.18205471  0.69697736    -0.02200
C710        C  0.92089292  0.17711826  0.67238000    -0.06600
C711        C  0.94433116  0.20551822  0.65987349     0.06900
C712        C  0.93341354  0.24066528  0.66977841    -0.01700
Br713      Br  0.95849297  0.28302783  0.65148275    -0.01400
H714        H  0.89305592  0.27289737  0.69944213     0.10800
H715        H  0.92616268  0.15001955  0.66360580     0.08800
Br716      Br  0.86705806  0.13928700  0.71673629    -0.01800
C717        C  0.69190574  0.12207444  0.28820595    -0.08400
C718        C  0.70776985  0.12047102  0.25157213     0.07800
C719        C  0.69523735  0.09358738  0.22662138    -0.02200
C720        C  0.67083612  0.06672487  0.24043254    -0.06600
C721        C  0.65938339  0.06594661  0.27883585     0.06900
C722        C  0.66794720  0.09558091  0.30186409    -0.01700
Br723      Br  0.64999998  0.10101139  0.35332544    -0.01400
H724        H  0.69860238  0.14402421  0.30698613     0.10800
H725        H  0.66263918  0.04539893  0.22169541     0.08800
Br726      Br  0.71181627  0.09089701  0.17463374    -0.01800
C727        C  0.80139560  0.24535519  0.39823500    -0.08400
C728        C  0.78988064  0.27067701  0.37072353     0.07800
C729        C  0.80239913  0.30625803  0.37427652    -0.02200
C730        C  0.82448742  0.31597285  0.40552463    -0.06600
C731        C  0.83395844  0.29126687  0.43465366     0.06900
C732        C  0.82303512  0.25514355  0.42991359    -0.01700
Br733      Br  0.83519813  0.21744065  0.46517918    -0.01400
H734        H  0.79342436  0.21754040  0.39506848     0.10800
H735        H  0.83344441  0.34360295  0.40758817     0.08800
Br736      Br  0.79202734  0.34263803  0.33661187    -0.01800
C737        C  0.63248167  0.16403869  0.21454401    -0.08400
C738        C  0.63139846  0.19487027  0.23716521     0.07800
C739        C  0.59901006  0.20119583  0.25918645    -0.02200
C740        C  0.56695423  0.17957896  0.25424198    -0.06600
C741        C  0.56716363  0.15095967  0.22851979     0.06900
C742        C  0.60117468  0.14166083  0.21111334    -0.01700
Br743      Br  0.60375962  0.10140895  0.17770011    -0.01400
H744        H  0.65737990  0.15803393  0.19813741     0.10800
H745        H  0.54089095  0.18744297  0.26746549     0.08800
Br746      Br  0.59529112  0.24153369  0.29218794    -0.01800
C747        C  0.91190323  0.25070430  0.30257142    -0.08400
C748        C  0.88158502  0.22687582  0.29967043     0.07800
C749        C  0.87856746  0.19875381  0.32700116    -0.02200
C750        C  0.90590155  0.19458019  0.35516793    -0.06600
C751        C  0.93844005  0.21587849  0.35582942     0.06900
C752        C  0.94085461  0.24500297  0.32919065    -0.01700
Br753      Br  0.98329026  0.27638211  0.32270871    -0.01400
H754        H  0.91433904  0.27269719  0.28229578     0.10800
H755        H  0.90294335  0.17248956  0.37526478     0.08800
Br756      Br  0.83895152  0.16354720  0.32777687    -0.01800
C757        C  0.70427784  0.40118415  0.14823504    -0.08400
C758        C  0.71334908  0.43375465  0.16569492     0.07800
C759        C  0.73046243  0.43262363  0.20220362    -0.02200
C760        C  0.74051294  0.39980274  0.21897259    -0.06600
C761        C  0.73177592  0.36750522  0.20123358     0.06900
C762        C  0.71314426  0.36834269  0.16572422    -0.01700
Br763      Br  0.69884795  0.32523125  0.14029180    -0.01400
H764        H  0.68955482  0.40134085  0.12117985     0.10800
H765        H  0.75382362  0.39942693  0.24677542     0.08800
Br766      Br  0.73630171  0.47413083  0.23309248    -0.01800
C767        C  0.74693537  0.29155323  0.04904393    -0.08400
C768        C  0.76830579  0.32340333  0.04727817     0.07800
C769        C  0.80441914  0.32258194  0.06376252    -0.02200
C770        C  0.81273940  0.29585069  0.09100648    -0.06600
C771        C  0.78642157  0.26857516  0.09974878     0.06900
C772        C  0.75572343  0.26416382  0.07465750    -0.01700
Br773      Br  0.72159526  0.22403250  0.07621799    -0.01400
H774        H  0.72147981  0.28882216  0.03242181     0.10800
H775        H  0.83847466  0.29804771  0.10728722     0.08800
Br776      Br  0.84340064  0.35579089  0.04956672    -0.01800
C777        C  0.72361790  0.31841962  0.88184009    -0.08400
C778        C  0.75549708  0.29648218  0.88093780     0.07800
C779        C  0.78418260  0.30218827  0.90795285    -0.02200
C780        C  0.77895192  0.32723284  0.93706629    -0.06600
C781        C  0.74594180  0.34779246  0.93904256     0.06900
C782        C  0.71919969  0.34446858  0.90962811    -0.01700
Br783      Br  0.67668745  0.37560259  0.90487628    -0.01400
H784        H  0.70234444  0.31610219  0.85988600     0.10800
H785        H  0.80019548  0.32959387  0.95901101     0.08800
Br786      Br  0.83000459  0.27550780  0.90760132    -0.01800
C787        C  0.77906663  0.40560474  0.84181954    -0.08400
C788        C  0.74841698  0.42905204  0.84159436     0.07800
C789        C  0.71491612  0.41711959  0.82412946    -0.02200
C790        C  0.71434690  0.38530472  0.80309328    -0.06600
C791        C  0.74696372  0.36466242  0.79902659     0.06900
C792        C  0.77886070  0.37410308  0.82097375    -0.01700
Br793      Br  0.82510022  0.34770128  0.82220631    -0.01400
H794        H  0.80584990  0.41405236  0.85287117     0.10800
H795        H  0.68905598  0.37812589  0.78776423     0.08800
Br796      Br  0.67166881  0.44727000  0.82146800    -0.01800
C797        C  0.75075683  0.70047380  0.08699952    -0.08400
C798        C  0.72560062  0.70677840  0.11679268     0.07800
C799        C  0.68969292  0.69029380  0.11531326    -0.02200
C800        C  0.68098111  0.66613900  0.08638938    -0.06600
C801        C  0.70539567  0.66065558  0.05555936     0.06900
C802        C  0.74003125  0.67983773  0.05550265    -0.01700
Br803      Br  0.77308114  0.68199357  0.01281133    -0.01400
H804        H  0.77804237  0.71345524  0.08710924     0.10800
H805        H  0.65327605  0.65395370  0.08611127     0.08800
Br806      Br  0.64967969  0.70133682  0.14989054    -0.01800
C807        C  0.59222211  0.79426467  0.24997121    -0.08400
C808        C  0.61358503  0.77921813  0.27978163     0.07800
C809        C  0.60594844  0.79044616  0.31709242    -0.02200
C810        C  0.58280825  0.82003216  0.32297465    -0.06600
C811        C  0.56352936  0.83773576  0.29272460     0.06900
C812        C  0.56639944  0.82176807  0.25618897    -0.01700
Br813      Br  0.53509202  0.83243060  0.21317910    -0.01400
H814        H  0.59568057  0.78462277  0.22114663     0.10800
H815        H  0.57967845  0.82810555  0.35220443     0.08800
Br816      Br  0.62526842  0.76640546  0.36168056    -0.01800
C817        C  0.75532317  0.59531600  0.20867130    -0.08400
C818        C  0.72685737  0.61940110  0.21901569     0.07800
C819        C  0.69008372  0.61269566  0.20586099    -0.02200
C820        C  0.68331179  0.58486046  0.18065104    -0.06600
C821        C  0.71076185  0.55914840  0.17211790     0.06900
C822        C  0.74744618  0.56466651  0.18697217    -0.01700
Br823      Br  0.78865382  0.53264568  0.17855405    -0.01400
H824        H  0.78385199  0.59993398  0.21822612     0.10800
H825        H  0.65513944  0.58221702  0.16942217     0.08800
Br826      Br  0.64658076  0.63845373  0.22250404    -0.01800
C827        C  0.69281144  0.90337726  0.23883617    -0.08400
C828        C  0.69264813  0.87445277  0.26453627     0.07800
C829        C  0.67370094  0.87818583  0.29967849    -0.02200
C830        C  0.65272893  0.90885466  0.30692750    -0.06600
C831        C  0.65433806  0.93879025  0.28236269     0.06900
C832        C  0.67632633  0.93605066  0.24866858    -0.01700
Br833      Br  0.68797407  0.97612771  0.21629606    -0.01400
H834        H  0.70843577  0.90148686  0.21239630     0.10800
H835        H  0.63843917  0.91089904  0.33414883     0.08800
Br836      Br  0.67921141  0.84471727  0.34109909    -0.01800
C837        C  0.30946287  0.67923699  0.13606816    -0.08400
C838        C  0.27736200  0.70105251  0.13554926     0.07800
C839        C  0.25125293  0.69667542  0.10568623    -0.02200
C840        C  0.25909766  0.67287719  0.07588028    -0.06600
C841        C  0.29251192  0.65276927  0.07548683     0.06900
C842        C  0.31684044  0.65508641  0.10701050    -0.01700
Br843      Br  0.36197319  0.62735339  0.11081032    -0.01400
H844        H  0.32956570  0.68123138  0.15911824     0.10800
H845        H  0.24026866  0.67204976  0.05164441     0.08800
Br846      Br  0.20682277  0.72518513  0.10184194    -0.01800
C847        C  0.41054449  0.80011579  0.26250061    -0.08400
C848        C  0.39964786  0.77849114  0.29352059     0.07800
C849        C  0.41678847  0.78381846  0.32908662    -0.02200
C850        C  0.44347565  0.81107435  0.33324608    -0.06600
C851        C  0.45309454  0.83445397  0.30267722     0.06900
C852        C  0.43644109  0.82794691  0.26666262    -0.01700
Br853      Br  0.44414472  0.85663493  0.22182606    -0.01400
H854        H  0.39673749  0.79703689  0.23515282     0.10800
H855        H  0.45637111  0.81373860  0.36095644     0.08800
Br856      Br  0.40478068  0.75469420  0.37294362    -0.01800
C857        C  0.29620939  0.59843175  0.19139392    -0.08400
C858        C  0.26726116  0.62143310  0.20260738     0.07800
C859        C  0.23127798  0.61681906  0.18638189    -0.02200
C860        C  0.22345099  0.58641997  0.16538448    -0.06600
C861        C  0.25082103  0.56013590  0.15933990     0.06900
C862        C  0.28819180  0.56815826  0.16935990    -0.01700
Br863      Br  0.32815948  0.53641169  0.15730098    -0.01400
H864        H  0.32462561  0.60292793  0.20131712     0.10800
H865        H  0.19429957  0.58094890  0.15876645     0.08800
Br866      Br  0.19052543  0.64986000  0.19274296    -0.01800
C867        C  0.32999699  0.86306754  0.20983630    -0.08400
C868        C  0.30379685  0.86447145  0.23970467     0.07800
C869        C  0.29797890  0.89722731  0.25816360    -0.02200
C870        C  0.31683610  0.92825599  0.24520837    -0.06600
C871        C  0.34264244  0.92699925  0.21471825     0.06900
C872        C  0.34914746  0.89378007  0.19724216    -0.01700
Br873      Br  0.38138586  0.88960651  0.15349427    -0.01400
H874        H  0.33516350  0.83794200  0.19571567     0.10800
H875        H  0.31005790  0.95372684  0.25781545     0.08800
Br876      Br  0.26191738  0.90133537  0.29856214    -0.01800
C877        C  0.17679310  0.67868035  0.42964448    -0.08400
C878        C  0.16787883  0.70686241  0.45412236     0.07800
C879        C  0.18265738  0.74123062  0.44564302    -0.02200
C880        C  0.20816565  0.74565501  0.41547913    -0.06600
C881        C  0.21892680  0.71676799  0.39262110     0.06900
C882        C  0.20180741  0.68304600  0.39943693    -0.01700
Br883      Br  0.20965589  0.64115828  0.36909681    -0.01400
H884        H  0.16449730  0.65244415  0.43442920     0.10800
H885        H  0.21967247  0.77207906  0.40993980     0.08800
Br886      Br  0.17043773  0.78353586  0.47322281    -0.01800
C887        C  0.10606975  0.78881608  0.35161344    -0.08400
C888        C  0.07201305  0.77095137  0.34408819     0.07800
C889        C  0.07194993  0.74441523  0.31554729    -0.02200
C890        C  0.10499947  0.73656654  0.29552601    -0.06600
C891        C  0.13780552  0.75662302  0.30108211     0.06900
C892        C  0.13825215  0.78274145  0.32967574    -0.01700
Br893      Br  0.18162439  0.81213818  0.33860878    -0.01400
H894        H  0.10664188  0.81010925  0.37232373     0.10800
H895        H  0.10455507  0.71599207  0.27401091     0.08800
Br896      Br  0.02721797  0.72143563  0.29824258    -0.01800
C897        C  0.89685378  0.74358537  0.29826476    -0.08400
C898        C  0.87702427  0.77233286  0.28139218     0.07800
C899        C  0.88778064  0.80730667  0.29185353    -0.02200
C900        C  0.91673657  0.81261006  0.31791229    -0.06600
C901        C  0.93923444  0.78448550  0.33199800     0.06900
C902        C  0.92714169  0.74923000  0.32376703    -0.01700
Br903      Br  0.94688791  0.70788490  0.34929197    -0.01400
H904        H  0.88814739  0.71645782  0.29244599     0.10800
H905        H  0.92253488  0.83988728  0.32605881     0.08800
Br906      Br  0.86634039  0.85029034  0.27054855    -0.01800
C907        C  0.85221223  0.69481754  0.40594741    -0.08400
C908        C  0.84806935  0.71410458  0.43997605     0.07800
C909        C  0.82004738  0.74088062  0.44114572    -0.02200
C910        C  0.79696454  0.74712556  0.40964637    -0.06600
C911        C  0.79931928  0.72591633  0.37730354     0.06900
C912        C  0.82767552  0.69998358  0.37512813    -0.01700
Br913      Br  0.83323284  0.67035857  0.33118384    -0.01400
H914        H  0.87261994  0.67349219  0.40459130     0.10800
H915        H  0.77577246  0.76776686  0.41102060     0.08800
Br916      Br  0.80787771  0.76776987  0.48529907    -0.01800
C917        C  0.09665251  0.76485680  0.71686763    -0.08400
C918        C  0.12356909  0.79189546  0.72338108     0.07800
C919        C  0.12207263  0.82331192  0.70041425    -0.02200
C920        C  0.09328821  0.82765948  0.67391082    -0.06600
C921        C  0.06454255  0.80216154  0.66972266     0.06900
C922        C  0.06730317  0.76969552  0.69053172    -0.01700
Br923      Br  0.03137515  0.73164037  0.68637714    -0.01400
H924        H  0.09793249  0.73994041  0.73286419     0.10800
H925        H  0.09205542  0.85255515  0.65782550     0.08800
Br926      Br  0.15718762  0.86258552  0.70306840    -0.01800
C927        C  0.22977554  0.60870239  0.80971656    -0.08400
C928        C  0.25626746  0.63677121  0.81037287     0.07800
C929        C  0.28928311  0.63214340  0.83198707    -0.02200
C930        C  0.29755660  0.59879839  0.84804463    -0.06600
C931        C  0.27305785  0.56954359  0.84406431     0.06900
C932        C  0.23804985  0.57518418  0.82622240    -0.01700
Br933      Br  0.20311951  0.53662016  0.81904394    -0.01400
H934        H  0.20359005  0.61215262  0.79443337     0.10800
H935        H  0.32489514  0.59510646  0.86086717     0.08800
Br936      Br  0.32453719  0.67028247  0.84043169    -0.01800
C937        C  0.39913840  0.81828183  0.75904724    -0.08400
C938        C  0.37240621  0.80257836  0.73459923     0.07800
C939        C  0.37287332  0.81316487  0.69574083    -0.02200
C940        C  0.40217420  0.83445662  0.68160896    -0.06600
C941        C  0.43213052  0.84560338  0.70487656     0.06900
C942        C  0.42825945  0.84031432  0.74478991    -0.01700
Br943      Br  0.46059474  0.86217705  0.78177916    -0.01400
H944        H  0.39751350  0.81337424  0.78953374     0.10800
H945        H  0.40247629  0.84085376  0.65137729     0.08800
Br946      Br  0.33402594  0.80114159  0.65994465    -0.01800
C947        C  0.16549303  0.72150082  0.65002597    -0.08400
C948        C  0.19667969  0.74383279  0.64333972     0.07800
C949        C  0.20201527  0.75888195  0.60680553    -0.02200
C950        C  0.17838268  0.74879885  0.57680317    -0.06600
C951        C  0.14838859  0.72467450  0.58277691     0.06900
C952        C  0.14123257  0.71222324  0.62025015    -0.01700
Br953      Br  0.10029513  0.68020831  0.63131036    -0.01400
H954        H  0.16017454  0.71097651  0.67848759     0.10800
H955        H  0.18526703  0.75782096  0.54827240     0.08800
Br956      Br  0.24311200  0.79078592  0.59593363    -0.01800
C957        C  0.23032131  0.68808678  0.90444072    -0.08400
C958        C  0.24336275  0.72367367  0.90480555     0.07800
C959        C  0.26616977  0.73479683  0.93508952    -0.02200
C960        C  0.27866369  0.70974200  0.96193941    -0.06600
C961        C  0.27048610  0.67287150  0.95829808     0.06900
C962        C  0.24361729  0.66269638  0.93090769    -0.01700
Br963      Br  0.22553699  0.61474517  0.92638637    -0.01400
H964        H  0.21230910  0.67919451  0.88146592     0.10800
H965        H  0.29734418  0.71889683  0.98422005     0.08800
Br966      Br  0.28315255  0.78339855  0.93950028    -0.01800
C967        C  0.33530848  0.88617545  0.80369498    -0.08400
C968        C  0.30689759  0.88636841  0.77582808     0.07800
C969        C  0.30668320  0.91449871  0.74854567    -0.02200
C970        C  0.33285062  0.94261302  0.75134067    -0.06600
C971        C  0.35926816  0.94371686  0.78113855     0.06900
C972        C  0.36110514  0.91431383  0.80658172    -0.01700
Br973      Br  0.39690588  0.91218102  0.84748180    -0.01400
H974        H  0.33719188  0.86417694  0.82397956     0.10800
H975        H  0.33057026  0.96497333  0.73178079     0.08800
Br976      Br  0.26915310  0.91833929  0.70942919    -0.01800
C977        C  0.58464162  0.78511157  0.73721097    -0.08400
C978        C  0.61939969  0.78708236  0.71886928     0.07800
C979        C  0.62500426  0.81333811  0.69020166    -0.02200
C980        C  0.59619005  0.83725740  0.68099635    -0.06600
C981        C  0.56098339  0.83575401  0.69942857     0.06900
C982        C  0.55515842  0.80770426  0.72657238    -0.01700
Br983      Br  0.50706140  0.79249885  0.74454423    -0.01400
H984        H  0.57983618  0.76452100  0.75872352     0.10800
H985        H  0.60071656  0.85606026  0.65766378     0.08800
Br986      Br  0.67136227  0.81803864  0.66253019    -0.01800
C987        C  0.71347548  0.60868041  0.79671108    -0.08400
C988        C  0.74650245  0.62930401  0.79525226     0.07800
C989        C  0.77760412  0.61761700  0.81755923    -0.02200
C990        C  0.77532355  0.58572398  0.83896997    -0.06600
C991        C  0.74411735  0.56291886  0.83624442     0.06900
C992        C  0.71246051  0.57549605  0.81572239    -0.01700
Br993      Br  0.67038380  0.54507489  0.80466377    -0.01400
H994        H  0.68914486  0.61694128  0.78038661     0.10800
H995        H  0.80044517  0.57600492  0.85303273     0.08800
Br996      Br  0.82586903  0.64101008  0.81777388    -0.01800
C997        C  0.81095051  0.69999625  0.63261504    -0.08400
C998        C  0.79436886  0.73401645  0.63044834     0.07800
C999        C  0.80718528  0.75820149  0.60186279    -0.02200
C1000       C  0.83348238  0.74686963  0.57477796    -0.06600
C1001       C  0.84514898  0.71117061  0.57372409     0.06900
C1002       C  0.83614831  0.68858651  0.60498531    -0.01700
Br1003     Br  0.85783530  0.64195816  0.61204183    -0.01400
H1004       H  0.80413042  0.68173178  0.65585916     0.10800
H1005       H  0.84314903  0.76556201  0.55323204     0.08800
Br1006     Br  0.78800572  0.80580258  0.59574162    -0.01800
C1007       C  0.70745517  0.67430021  0.86389450    -0.08400
C1008       C  0.74127415  0.69263504  0.87076862     0.07800
C1009       C  0.76534107  0.67972848  0.89950784    -0.02200
C1010       C  0.75200085  0.65291603  0.92458231    -0.06600
C1011       C  0.71422116  0.64182562  0.92300370     0.06900
C1012       C  0.69398840  0.64878566  0.88930953    -0.01700
Br1013     Br  0.64460067  0.63006373  0.87961140    -0.01400
H1014       H  0.69004691  0.68131345  0.83959997     0.10800
H1015       H  0.76948285  0.64411732  0.94791601     0.08800
Br1016     Br  0.81366619  0.70072766  0.90878805    -0.01800
C1017       C  0.69772519  0.90904416  0.76045539    -0.08400
C1018       C  0.68469987  0.87586543  0.77365624     0.07800
C1019       C  0.64977948  0.87405894  0.79313851    -0.02200
C1020       C  0.62912956  0.90515474  0.79935706    -0.06600
C1021       C  0.64314962  0.93861398  0.78801041     0.06900
C1022       C  0.67818715  0.94033350  0.76876194    -0.01700
Br1023     Br  0.70413335  0.98431085  0.75830323    -0.01400
H1024       H  0.72474351  0.91093989  0.74628601     0.10800
H1025       H  0.60313560  0.90349087  0.81542716     0.08800
Br1026     Br  0.62911255  0.83058553  0.81395515    -0.01800
C1027       C  0.86889372  0.80036710  0.67041074    -0.08400
C1028       C  0.87246942  0.78376300  0.70650930     0.07800
C1029       C  0.90766012  0.77002420  0.71736154    -0.02200
C1030       C  0.93895207  0.77628498  0.69393139    -0.06600
C1031       C  0.93560682  0.79463102  0.65882679     0.06900
C1032       C  0.89994443  0.80520003  0.64641210    -0.01700
Br1033     Br  0.89339651  0.82809826  0.59764202    -0.01400
H1034       H  0.84178232  0.80980131  0.66086836     0.10800
H1035       H  0.96637629  0.76941416  0.70472132     0.08800
Br1036     Br  0.91546249  0.74568822  0.76521610    -0.01800
loop_ 
_geom_bond_atom_site_label_1 
_geom_bond_atom_site_label_2 
_geom_bond_distance 
_geom_bond_site_symmetry_2 
_ccdc_geom_bond_type 
Zn1           O5   1.884       .  S
Zn1           O6   2.014       .  S
Zn1          O10   2.026       .  S
Zn1          O17   2.003       .  S
Zn2           O5   1.848       .  S
Zn2           O7   1.967       .  S
Zn2           O9   1.951       .  S
Zn2          O13   2.005       .  S
Zn3           O5   1.867       .  S
Zn3           O8   2.001       .  S
Zn3          O11   2.082       .  S
Zn3          O14   2.033       .  S
Zn4           O5   1.862       .  S
Zn4          O12   1.976       .  S
Zn4          O15   2.017       .  S
Zn4          O16   2.058       .  S
O6           C18   1.279       .  A
O7           C19   1.273       .  A
O8           C20   1.279       .  A
O9           C18   1.276       .  A
O10          C20   1.279       .  A
O11          C19   1.286       .  A
O12          C21   1.276       .  A
O13          C22   1.271       .  A
O14          C21   1.279       .  A
O15          C22   1.274       .  A
O16          C23   1.281       .  A
O17          C23   1.271       .  A
C18        C1008   1.470       .  S
C19        C1018   1.480       .  S
C20        C1028   1.479       .  S
C21         C998   1.486       .  S
C22         C978   1.476       .  S
C23         C988   1.499       .  S
Zn24         O28   1.904       .  S
Zn24         O29   2.016       .  S
Zn24         O33   2.026       .  S
Zn24         O40   2.043       .  S
Zn25         O28   1.874       .  S
Zn25         O30   2.009       .  S
Zn25         O32   2.010       .  S
Zn25         O36   2.006       .  S
Zn26         O28   1.850       .  S
Zn26         O31   2.042       .  S
Zn26         O34   2.041       .  S
Zn26         O37   2.040       .  S
Zn27         O28   1.883       .  S
Zn27         O35   2.003       .  S
Zn27         O38   2.038       .  S
Zn27         O39   1.985       .  S
O29          C41   1.280       .  A
O30          C42   1.275       .  A
O31          C43   1.281       .  A
O32          C41   1.280       .  A
O33          C43   1.275       .  A
O34          C42   1.281       .  A
O35          C44   1.273       .  A
O36          C45   1.278       .  A
O37          C44   1.280       .  A
O38          C45   1.276       .  A
O39          C46   1.274       .  A
O40          C46   1.280       .  A
C41         C958   1.475       .  S
C42         C938   1.494       .  S
C43         C928   1.485       .  S
C44         C948   1.473       .  S
C45         C968   1.489       .  S
C46         C918   1.491       .  S
N47          C51   1.370       .  A
N47          C48   1.373       .  A
N47          C91   1.478       .  S
C48         C908   1.489       .  S
C48          C49   1.380       .  A
C49          C50   1.355       .  A
C49          H52   1.083       .  S
C50          C51   1.382       .  A
C50          H53   1.082       .  S
C51        C1001   1.492       .  S
N54          C58   1.365   1_455  A
N54          C55   1.366       .  A
N54          C88   1.472       .  S
C55         C921   1.494       .  S
C55          C56   1.383       .  A
C56          C57   1.357   1_455  A
C56          H59   1.083       .  S
C57          C58   1.379       .  A
C57          H60   1.083       .  S
C58        C1031   1.476       .  S
N61          C65   1.380   1_455  A
N61          C62   1.378       .  A
N61          C90   1.486   1_455  S
C62         C888   1.492       .  S
C62          C63   1.372       .  A
C63          C64   1.346   1_455  A
C63          H66   1.083       .  S
C64          C65   1.392       .  A
C64          H67   1.081       .  S
C65         C901   1.523       .  S
N68          C73   1.346       .  A
N68          C72   1.356       .  A
N68         H100   1.047       .  S
N69          C76   1.357       .  A
N69          C77   1.357       .  A
N70          C75   1.363       .  A
N70          C74   1.354       .  A
N70         H101   1.047       .  S
N71          C78   1.360       .  A
N71          C79   1.356       .  A
C72          C80   1.393       .  A
C72          C88   1.429       .  A
C73          C89   1.407       .  A
C73          C81   1.378       .  A
C74          C82   1.377       .  A
C74          C91   1.420       .  A
C75          C90   1.440       .  A
C75          C83   1.393       .  A
C76          C88   1.414   1_655  A
C76          C84   1.374       .  A
C77          C91   1.436       .  A
C77          C85   1.392       .  A
C78          C86   1.393       .  A
C78          C89   1.439       .  A
C79          C87   1.377       .  A
C79          C90   1.422   1_455  A
C80          C81   1.382       .  A
C80          H92   1.074       .  S
C81          H93   1.081       .  S
C82          C83   1.383       .  A
C82          H94   1.078       .  S
C83          H95   1.074       .  S
C84          C85   1.378       .  A
C84          H96   1.082       .  S
C85          H97   1.073       .  S
C86          C87   1.382       .  A
C86          H98   1.074       .  S
C87          H99   1.081       .  S
C89         N102   1.471       .  S
N102        C106   1.371       .  A
N102        C103   1.360       .  A
C103        C878   1.492       .  S
C103        C104   1.384       .  A
C104        C105   1.358       .  A
C104        H107   1.082       .  S
C105        C106   1.381       .  A
C105        H108   1.083       .  S
C106        C951   1.488       .  S
Zn109       O113   1.880       .  S
Zn109       O114   2.062       .  S
Zn109       O118   2.067       .  S
Zn109       O125   2.035       .  S
Zn110       O113   1.857       .  S
Zn110       O115   1.990       .  S
Zn110       O117   1.998       .  S
Zn110       O121   1.981       .  S
Zn111       O113   1.886       .  S
Zn111       O116   1.984       .  S
Zn111       O119   2.029       .  S
Zn111       O122   2.016       .  S
Zn112       O113   1.880       .  S
Zn112       O120   1.995       .  S
Zn112       O123   2.024       .  S
Zn112       O124   2.033       .  S
O114        C126   1.282       .  A
O115        C127   1.275       .  A
O116        C128   1.272       .  A
O117        C126   1.271       .  A
O118        C128   1.280       .  A
O119        C127   1.277       .  A
O120        C129   1.274       .  A
O121        C130   1.274       .  A
O122        C129   1.278       .  A
O123        C130   1.280       .  A
O124        C131   1.278       .  A
O125        C131   1.281       .  A
C126        C891   1.476       .  S
C127        C858   1.479       .  S
C128        C838   1.491       .  S
C129        C848   1.473       .  S
C130        C881   1.484       .  S
C131        C868   1.481       .  S
Zn132       O136   1.879       .  S
Zn132       O137   1.977       .  S
Zn132       O141   2.007       .  S
Zn132       O148   1.976       .  S
Zn133       O136   1.886       .  S
Zn133       O138   2.058       .  S
Zn133       O140   2.042       .  S
Zn133       O144   2.023       .  S
Zn134       O136   1.901       .  S
Zn134       O139   2.061       .  S
Zn134       O142   1.991       .  S
Zn134       O145   2.001       .  S
Zn135       O136   1.922       .  S
Zn135       O143   2.062       .  S
Zn135       O146   2.032       .  S
Zn135       O147   2.097       .  S
O137        C149   1.269       .  A
O138        C150   1.280       .  A
O139        C151   1.281       .  A
O140        C149   1.278       .  A
O141        C151   1.274       .  A
O142        C150   1.270       .  A
O143        C152   1.285       .  A
O144        C153   1.278       .  A
O145        C152   1.276       .  A
O146        C153   1.277       .  A
O147        C154   1.284       .  A
O148        C154   1.273       .  A
C149        C911   1.468       .  S
C150        C808   1.494       .  S
C151        C828   1.485       .  S
C152        C798   1.489       .  S
C153        C818   1.493       .  S
C154        C898   1.503       .  S
N155        C159   1.380   1_556  A
N155        C156   1.365       .  A
N155        C197   1.482       .  S
C156       C1011   1.482       .  S
C156        C157   1.379       .  A
C157        C158   1.353   1_556  A
C157        H160   1.082       .  S
C158        C159   1.383       .  A
C158        H161   1.083       .  S
C159        C801   1.502       .  S
N162        C166   1.379       .  A
N162        C163   1.381       .  A
N162        C198   1.481       .  S
C163        C788   1.482       .  S
C163        C164   1.379       .  A
C164        C165   1.346       .  A
C164        H167   1.083       .  S
C165        C166   1.379       .  A
C165        H168   1.083       .  S
C166        C991   1.478       .  S
N169        C173   1.363       .  A
N169        C170   1.365   1_554  A
N169        C199   1.477       .  S
C170        C781   1.492       .  S
C170        C171   1.388       .  A
C171        C172   1.362   1_556  A
C171        H174   1.080       .  S
C172        C173   1.387       .  A
C172        H175   1.083       .  S
C173        C768   1.506       .  S
N176        C181   1.361       .  A
N176        C180   1.360       .  A
N176        H208   1.045       .  S
N177        C184   1.361       .  A
N177        C185   1.359       .  A
N178        C183   1.359       .  A
N178        C182   1.352       .  A
N178        H209   1.045       .  S
N179        C186   1.354       .  A
N179        C187   1.362       .  A
C180        C188   1.382       .  A
C180        C196   1.426       .  A
C181        C197   1.421   1_554  A
C181        C189   1.376       .  A
C182        C190   1.382       .  A
C182        C199   1.415   1_556  A
C183        C198   1.421       .  A
C183        C191   1.380       .  A
C184        C196   1.419       .  A
C184        C192   1.374       .  A
C185        C199   1.431       .  A
C185        C193   1.386       .  A
C186        C194   1.385       .  A
C186        C197   1.432       .  A
C187        C195   1.376       .  A
C187        C198   1.418       .  A
C188        C189   1.373       .  A
C188        H200   1.071       .  S
C189        H201   1.072       .  S
C190        C191   1.383       .  A
C190        H202   1.082       .  S
C191        H203   1.079       .  S
C192        C193   1.365       .  A
C192        H204   1.079       .  S
C193        H205   1.072       .  S
C194        C195   1.381       .  A
C194        H206   1.078       .  S
C195        H207   1.077       .  S
C196        N210   1.488       .  S
N210        C214   1.375       .  A
N210        C211   1.384       .  A
C211        C758   1.494       .  S
C211        C212   1.373       .  A
C212        C213   1.351       .  A
C212        H215   1.083       .  S
C213        C214   1.389       .  A
C213        H216   1.081       .  S
C214        C821   1.508       .  S
Zn217       O221   1.886       .  S
Zn217       O222   2.000       .  S
Zn217       O226   1.996       .  S
Zn217       O233   2.024       .  S
Zn218       O221   1.899       .  S
Zn218       O223   2.054       .  S
Zn218       O225   2.036       .  S
Zn218       O229   2.086       .  S
Zn219       O221   1.886       .  S
Zn219       O224   2.055       .  S
Zn219       O227   2.033       .  S
Zn219       O230   2.054       .  S
Zn220       O221   1.857       .  S
Zn220       O228   1.977       .  S
Zn220       O231   1.966       .  S
Zn220       O232   1.960       .  S
O222        C234   1.277       .  A
O223        C235   1.281       .  A
O224        C236   1.280       .  A
O225        C234   1.281       .  A
O226        C236   1.276       .  A
O227        C235   1.280       .  A
O228        C237   1.268       .  A
O229        C238   1.285       .  A
O230        C237   1.280       .  A
O231        C238   1.271       .  A
O232        C239   1.272       .  A
O233        C239   1.275       .  A
C234        C771   1.489       .  S
C235        C761   1.480       .  S
C236        C738   1.486       .  S
C237        C728   1.482       .  S
C238        C748   1.489       .  S
C239        C718   1.478       .  S
Zn240       O244   1.856       .  S
Zn240       O245   2.008       .  S
Zn240       O249   2.008       .  S
Zn240       O256   1.984       .  S
Zn241       O244   1.859       .  S
Zn241       O246   2.048       .  S
Zn241       O248   2.036       .  S
Zn241       O252   2.014       .  S
Zn242       O244   1.882       .  S
Zn242       O247   2.038       .  S
Zn242       O250   2.004       .  S
Zn242       O253   2.056       .  S
Zn243       O244   1.874       .  S
Zn243       O251   2.006       .  S
Zn243       O254   2.020       .  S
Zn243       O255   2.064       .  S
O245        C257   1.273       .  A
O246        C258   1.280       .  A
O247        C259   1.280       .  A
O248        C257   1.279       .  A
O249        C259   1.278       .  A
O250        C258   1.274       .  A
O251        C260   1.279       .  A
O252        C261   1.278       .  A
O253        C260   1.282       .  A
O254        C261   1.277       .  A
O255        C262   1.282       .  A
O256        C262   1.275       .  A
C257        C698   1.478       .  S
C258        C791   1.493       .  S
C259        C778   1.483       .  S
C260        C708   1.492       .  S
C261        C688   1.477       .  S
C262        C678   1.493       .  S
N263        C267   1.369       .  A
N263        C264   1.373   1_545  A
N263        C304   1.481       .  S
C264       C1021   1.483       .  S
C264        C265   1.378       .  A
C265        C266   1.356   1_565  A
C265        H268   1.083       .  S
C266        C267   1.385       .  A
C266        H269   1.082       .  S
C267        C681   1.500       .  S
N270        C274   1.372       .  A
N270        C271   1.379       .  A
N270        C307   1.496       .  S
C271        C981   1.503       .  S
C271        C272   1.380       .  A
C272        C273   1.354       .  A
C272        H275   1.084       .  S
C273        C274   1.384       .  A
C273        H276   1.082       .  S
C274        C941   1.506       .  S
N277        C281   1.368       .  A
N277        C278   1.366   1_545  A
N277        C306   1.458       .  S
C278        C971   1.490       .  S
C278        C279   1.384       .  A
C279        C280   1.365   1_565  A
C279        H282   1.082       .  S
C280        C281   1.380       .  A
C280        H283   1.083       .  S
C281        C668   1.496       .  S
N284        C289   1.361       .  A
N284        C288   1.356       .  A
N284        H316   1.044       .  S
N285        C292   1.362       .  A
N285        C293   1.368       .  A
N286        C291   1.358       .  A
N286        C290   1.359       .  A
N286        H317   1.041       .  S
N287        C294   1.349       .  A
N287        C295   1.345       .  A
C288        C296   1.394       .  A
C288        C304   1.438       .  A
C289        C305   1.412       .  A
C289        C297   1.374       .  A
C290        C298   1.393       .  A
C290        C307   1.437       .  A
C291        C306   1.407   1_565  A
C291        C299   1.377       .  A
C292        C304   1.429   1_565  A
C292        C300   1.374       .  A
C293        C307   1.446       .  A
C293        C301   1.387       .  A
C294        C302   1.384       .  A
C294        C305   1.404       .  A
C295        C303   1.385       .  A
C295        C306   1.403       .  A
C296        C297   1.383       .  A
C296        H308   1.078       .  S
C297        H309   1.081       .  S
C298        C299   1.378       .  A
C298        H310   1.081       .  S
C299        H311   1.082       .  S
C300        C301   1.374       .  A
C300        H312   1.081       .  S
C301        H313   1.065       .  S
C302        C303   1.382       .  A
C302        H314   1.082       .  S
C303        H315   1.082       .  S
C305        N318   1.465       .  S
N318        C322   1.366       .  A
N318        C319   1.364       .  A
C319        C701   1.493       .  S
C319        C320   1.387       .  A
C320        C321   1.364       .  A
C320        H323   1.082       .  S
C321        C322   1.378       .  A
C321        H324   1.083       .  S
C322        C658   1.489       .  S
Zn325       O329   1.886       .  S
Zn325       O330   2.013       .  S
Zn325       O334   2.051       .  S
Zn325       O341   2.022       .  S
Zn326       O329   1.869       .  S
Zn326       O331   2.013       .  S
Zn326       O333   2.063       .  S
Zn326       O337   2.036       .  S
Zn327       O329   1.871       .  S
Zn327       O332   1.989       .  S
Zn327       O335   2.057       .  S
Zn327       O338   2.020       .  S
Zn328       O329   1.846       .  S
Zn328       O336   2.045       .  S
Zn328       O339   1.993       .  S
Zn328       O340   2.020       .  S
O330        C342   1.282       .  A
O331        C343   1.277       .  A
O332        C344   1.279       .  A
O333        C342   1.286       .  A
O334        C344   1.280       .  A
O335        C343   1.283       .  A
O336        C345   1.282       .  A
O337        C346   1.281       .  A
O338        C345   1.276       .  A
O339        C346   1.274       .  A
O340        C347   1.275       .  A
O341        C347   1.274       .  A
C342        C671   1.491       .  S
C343        C618   1.492       .  S
C344        C648   1.491       .  S
C345        C638   1.490       .  S
C346        C631   1.493       .  S
C347        C661   1.482       .  S
N348        C352   1.363       .  A
N348        C349   1.367   1_554  A
N348        C389   1.470       .  S
C349        C961   1.500       .  S
C349        C350   1.387       .  A
C350        C351   1.360   1_556  A
C350        H353   1.083       .  S
C351        C352   1.385       .  A
C351        H354   1.082       .  S
C352        C841   1.491       .  S
N355        C359   1.369       .  A
N355        C356   1.368       .  A
N355        C392   1.462       .  S
C356        C931   1.481       .  S
C356        C357   1.376       .  A
C357        C358   1.359       .  A
C357        H360   1.083       .  S
C358        C359   1.383       .  A
C358        H361   1.083       .  S
C359        C641   1.482       .  S
N362        C366   1.376   1_556  A
N362        C363   1.374       .  A
N362        C391   1.480       .  S
C363        C651   1.495       .  S
C363        C364   1.380       .  A
C364        C365   1.352   1_556  A
C364        H367   1.082       .  S
C365        C366   1.382       .  A
C365        H368   1.083       .  S
C366        C608   1.497       .  S
N369        C374   1.351       .  A
N369        C373   1.358       .  A
N369        H401   1.048       .  S
N370        C377   1.353       .  A
N370        C378   1.351       .  A
N371        C376   1.353       .  A
N371        C375   1.355       .  A
N371        H402   1.045       .  S
N372        C379   1.360       .  A
N372        C380   1.359       .  A
C373        C381   1.380       .  A
C373        C389   1.414       .  A
C374        C390   1.426       .  A
C374        C382   1.385       .  A
C375        C383   1.377       .  A
C375        C392   1.409       .  A
C376        C391   1.428       .  A
C376        C384   1.388       .  A
C377        C389   1.422   1_556  A
C377        C385   1.387       .  A
C378        C392   1.414       .  A
C378        C386   1.381       .  A
C379        C387   1.381       .  A
C379        C390   1.432       .  A
C380        C388   1.377       .  A
C380        C391   1.423   1_554  A
C381        C382   1.387       .  A
C381        H393   1.081       .  S
C382        H394   1.078       .  S
C383        C384   1.382       .  A
C383        H395   1.080       .  S
C384        H396   1.076       .  S
C385        C386   1.378       .  A
C385        H397   1.077       .  S
C386        H398   1.081       .  S
C387        C388   1.380       .  A
C387        H399   1.067       .  S
C388        H400   1.076       .  S
C390        N403   1.488       .  S
N403        C407   1.384       .  A
N403        C404   1.383       .  A
C404        C861   1.481       .  S
C404        C405   1.376       .  A
C405        C406   1.339       .  A
C405        H408   1.083       .  S
C406        C407   1.380       .  A
C406        H409   1.084       .  S
C407        C598   1.480       .  S
N410        C414   1.357       .  A
N410        C411   1.369       .  A
N410        C454   1.491       .  S
C411        C811   1.529       .  S
C411        C412   1.392       .  A
C412        C413   1.365       .  A
C412        H415   1.081       .  S
C413        C414   1.385       .  A
C413        H416   1.081       .  S
C414        C851   1.504       .  S
N417        C421   1.369       .  A
N417        C418   1.379   1_545  A
N417        C453   1.483       .  S
C418        C831   1.497       .  S
C418        C419   1.381       .  A
C419        C420   1.351   1_565  A
C419        H422   1.083       .  S
C420        C421   1.379       .  A
C420        H423   1.082       .  S
C421        C721   1.484       .  S
N424        C428   1.374   1_565  A
N424        C425   1.377       .  A
N424        C451   1.484       .  S
C425        C871   1.490       .  S
C425        C426   1.381       .  A
C426        C427   1.353   1_565  A
C426        H429   1.083       .  S
C427        C428   1.378       .  A
C427        H430   1.083       .  S
C428        C591   1.481       .  S
N431        C436   1.364       .  A
N431        C435   1.362       .  A
N431        H463   1.043       .  S
N432        C439   1.357       .  A
N432        C440   1.364       .  A
N433        C438   1.355       .  A
N433        C437   1.352       .  A
N433        H464   1.046       .  S
N434        C441   1.353       .  A
N434        C442   1.360       .  A
C435        C443   1.379       .  A
C435        C451   1.425   1_545  A
C436        C452   1.426       .  A
C436        C444   1.381       .  A
C437        C445   1.383       .  A
C437        C454   1.420       .  A
C438        C453   1.411   1_565  A
C438        C446   1.374       .  A
C439        C451   1.415       .  A
C439        C447   1.373       .  A
C440        C454   1.446       .  A
C440        C448   1.396       .  A
C441        C449   1.376       .  A
C441        C452   1.410       .  A
C442        C450   1.385       .  A
C442        C453   1.429       .  A
C443        C444   1.371       .  A
C443        H455   1.078       .  S
C444        H456   1.073       .  S
C445        C446   1.372       .  A
C445        H457   1.067       .  S
C446        H458   1.072       .  S
C447        C448   1.370       .  A
C447        H459   1.079       .  S
C448        H460   1.074       .  S
C449        C450   1.373       .  A
C449        H461   1.082       .  S
C450        H462   1.072       .  S
C452        N465   1.477       .  S
N465        C469   1.372       .  A
N465        C466   1.373       .  A
C466        C578   1.492       .  S
C466        C467   1.386       .  A
C467        C468   1.347       .  A
C467        H470   1.083       .  S
C468        C469   1.376       .  A
C468        H471   1.083       .  S
C469        C741   1.479       .  S
N472        C476   1.366       .  A
N472        C473   1.369       .  A
N472        C514   1.470       .  S
C473        C731   1.499       .  S
C473        C474   1.381       .  A
C474        C475   1.359       .  A
C474        H477   1.082       .  S
C475        C476   1.384       .  A
C475        H478   1.083       .  S
C476        C691   1.484       .  S
N479        C483   1.376   1_455  A
N479        C480   1.379       .  A
N479        C513   1.490       .  S
C480        C621   1.494       .  S
C480        C481   1.373       .  A
C481        C482   1.349   1_455  A
C481        H484   1.084       .  S
C482        C483   1.390       .  A
C482        H485   1.080       .  S
C483        C711   1.518       .  S
N486        C490   1.360       .  A
N486        C487   1.357   1_455  A
N486        C515   1.449       .  S
C487        C751   1.503       .  S
C487        C488   1.386       .  A
C488        C489   1.372   1_655  A
C488        H491   1.082       .  S
C489        C490   1.383       .  A
C489        H492   1.083       .  S
C490        C571   1.476       .  S
N493        C498   1.364       .  A
N493        C497   1.362       .  A
N493        H525   1.039       .  S
N494        C501   1.365       .  A
N494        C502   1.372       .  A
N495        C500   1.355       .  A
N495        C499   1.354       .  A
N495        H526   1.044       .  S
N496        C503   1.351       .  A
N496        C504   1.346       .  A
C497        C505   1.397       .  A
C497        C513   1.451   1_655  A
C498        C514   1.421       .  A
C498        C506   1.373       .  A
C499        C507   1.385       .  A
C499        C516   1.417       .  A
C500        C515   1.401       .  A
C500        C508   1.379       .  A
C501        C513   1.433       .  A
C501        C509   1.374       .  A
C502        C516   1.450       .  A
C502        C510   1.391       .  A
C503        C511   1.385       .  A
C503        C514   1.408       .  A
C504        C512   1.383       .  A
C504        C515   1.400   1_655  A
C505        C506   1.385       .  A
C505        H517   1.073       .  S
C506        H518   1.082       .  S
C507        C508   1.374       .  A
C507        H519   1.082       .  S
C508        H520   1.082       .  S
C509        C510   1.373       .  A
C509        H521   1.081       .  S
C510        H522   1.068       .  S
C511        C512   1.377       .  A
C511        H523   1.081       .  S
C512        H524   1.081       .  S
C516        N527   1.492       .  S
N527        C531   1.368       .  A
N527        C528   1.378       .  A
C528        C558   1.498       .  S
C528        C529   1.376       .  A
C529        C530   1.355       .  A
C529        H532   1.083       .  S
C530        C531   1.388       .  A
C530        H533   1.082       .  S
C531        C628   1.505       .  S
Zn534       O538   1.898       .  S
Zn534       O539   2.043       .  S
Zn534       O543   2.059       .  S
Zn534       O550   1.988       .  S
Zn535       O538   1.887       .  S
Zn535       O540   2.037       .  S
Zn535       O542   2.008       .  S
Zn535       O546   2.026       .  S
Zn536       O538   1.862       .  S
Zn536       O541   2.028       .  S
Zn536       O544   1.986       .  S
Zn536       O547   2.044       .  S
Zn537       O538   1.882       .  S
Zn537       O545   2.022       .  S
Zn537       O548   1.999       .  S
Zn537       O549   2.019       .  S
O539        C551   1.278       .  A
O540        C552   1.278       .  A
O541        C553   1.283       .  A
O542        C551   1.276       .  A
O543        C553   1.284       .  A
O544        C552   1.269       .  A
O545        C554   1.276       .  A
O546        C555   1.277       .  A
O547        C554   1.280       .  A
O548        C555   1.272       .  A
O549        C556   1.279       .  A
O550        C556   1.276       .  A
C551        C561   1.488       .  S
C552        C581   1.489       .  S
C553        C588   1.491       .  S
C554        C611   1.500       .  S
C555        C601   1.490       .  S
C556        C568   1.463       .  S
C557        C558   1.410       .  A
C557        C562   1.410       .  A
C557        H564   1.073       .  S
C558        C559   1.414       .  A
C559        C560   1.398       .  A
C559       Br566   1.919       .  S
C560        C561   1.404       .  A
C560        H565   1.084       .  S
C561        C562   1.408       .  A
C562       Br563   1.916       .  S
C567        C568   1.408       .  A
C567        C572   1.400       .  A
C567        H574   1.084       .  S
C568        C569   1.399       .  A
C569        C570   1.391       .  A
C569       Br576   1.919       .  S
C570        C571   1.407       .  A
C570        H575   1.080       .  S
C571        C572   1.405       .  A
C572       Br573   1.916       .  S
C577        C578   1.401       .  A
C577        C582   1.388       .  A
C577        H584   1.084       .  S
C578        C579   1.416       .  A
C579        C580   1.407       .  A
C579       Br586   1.918       .  S
C580        C581   1.409       .  A
C580        H585   1.083       .  S
C581        C582   1.419       .  A
C582       Br583   1.929       .  S
C587        C588   1.408       .  A
C587        C592   1.397       .  A
C587        H594   1.080       .  S
C588        C589   1.414       .  A
C589        C590   1.405       .  A
C589       Br596   1.917       .  S
C590        C591   1.406       .  A
C590        H595   1.083       .  S
C591        C592   1.406       .  A
C592       Br593   1.920       .  S
C597        C598   1.404       .  A
C597        C602   1.399       .  A
C597        H604   1.085       .  S
C598        C599   1.418       .  A
C599        C600   1.401       .  A
C599       Br606   1.918       .  S
C600        C601   1.403       .  A
C600        H605   1.083       .  S
C601        C602   1.418       .  A
C602       Br603   1.922       .  S
C607        C608   1.407       .  A
C607        C612   1.402       .  A
C607        H614   1.084       .  S
C608        C609   1.417       .  A
C609        C610   1.403       .  A
C609       Br616   1.913       .  S
C610        C611   1.407       .  A
C610        H615   1.083       .  S
C611        C612   1.416       .  A
C612       Br613   1.920       .  S
C617        C618   1.402       .  A
C617        C622   1.404       .  A
C617        H624   1.084       .  S
C618        C619   1.418       .  A
C619        C620   1.401       .  A
C619       Br626   1.920       .  S
C620        C621   1.403       .  A
C620        H625   1.084       .  S
C621        C622   1.418       .  A
C622       Br623   1.911       .  S
C627        C628   1.407       .  A
C627        C632   1.396       .  A
C627        H634   1.083       .  S
C628        C629   1.414       .  A
C629        C630   1.403       .  A
C629       Br636   1.916       .  S
C630        C631   1.407       .  A
C630        H635   1.081       .  S
C631        C632   1.417       .  A
C632       Br633   1.925       .  S
C637        C638   1.407       .  A
C637        C642   1.402       .  A
C637        H644   1.083       .  S
C638        C639   1.414       .  A
C639        C640   1.402       .  A
C639       Br646   1.919       .  S
C640        C641   1.405       .  A
C640        H645   1.081       .  S
C641        C642   1.408       .  A
C642       Br643   1.917       .  S
C647        C648   1.405       .  A
C647        C652   1.392       .  A
C647        H654   1.083       .  S
C648        C649   1.416       .  A
C649        C650   1.409       .  A
C649       Br656   1.917       .  S
C650        C651   1.405       .  A
C650        H655   1.079       .  S
C651        C652   1.413       .  A
C652       Br653   1.923       .  S
C657        C658   1.408       .  A
C657        C662   1.404       .  A
C657        H664   1.076       .  S
C658        C659   1.409       .  A
C659        C660   1.401       .  A
C659       Br666   1.918       .  S
C660        C661   1.406       .  A
C660        H665   1.084       .  S
C661        C662   1.407       .  A
C662       Br663   1.918       .  S
C667        C668   1.405       .  A
C667        C672   1.400       .  A
C667        H674   1.084       .  S
C668        C669   1.417       .  A
C669        C670   1.405       .  A
C669       Br676   1.913       .  S
C670        C671   1.403       .  A
C670        H675   1.083       .  S
C671        C672   1.416       .  A
C672       Br673   1.922       .  S
C677        C678   1.411       .  A
C677        C682   1.409       .  A
C677        H684   1.083       .  S
C678        C679   1.417       .  A
C679        C680   1.391       .  A
C679       Br686   1.926       .  S
C680        C681   1.404       .  A
C680        H685   1.084       .  S
C681        C682   1.415       .  A
C682       Br683   1.917       .  S
C687        C688   1.405       .  A
C687        C692   1.399       .  A
C687        H694   1.084       .  S
C688        C689   1.407       .  A
C689        C690   1.401       .  A
C689       Br696   1.919       .  S
C690        C691   1.408       .  A
C690        H695   1.079       .  S
C691        C692   1.409       .  A
C692       Br693   1.918       .  S
C697        C698   1.405       .  A
C697        C702   1.400       .  A
C697        H704   1.084       .  S
C698        C699   1.408       .  A
C699        C700   1.401       .  A
C699       Br706   1.918       .  S
C700        C701   1.407       .  A
C700        H705   1.078       .  S
C701        C702   1.411       .  A
C702       Br703   1.919       .  S
C707        C708   1.412       .  A
C707        C712   1.413       .  A
C707        H714   1.083       .  S
C708        C709   1.407       .  A
C709        C710   1.390       .  A
C709       Br716   1.925       .  S
C710        C711   1.412       .  A
C710        H715   1.080       .  S
C711        C712   1.420       .  A
C712       Br713   1.918       .  S
C717        C718   1.404       .  A
C717        C722   1.384       .  A
C717        H724   1.084       .  S
C718        C719   1.411       .  A
C719        C720   1.406       .  A
C719       Br726   1.918       .  S
C720        C721   1.405       .  A
C720        H725   1.078       .  S
C721        C722   1.411       .  A
C722       Br723   1.926       .  S
C727        C728   1.407       .  A
C727        C732   1.403       .  A
C727        H734   1.084       .  S
C728        C729   1.408       .  A
C729        C730   1.399       .  A
C729       Br736   1.922       .  S
C730        C731   1.411       .  A
C730        H735   1.083       .  S
C731        C732   1.415       .  A
C732       Br733   1.916       .  S
C737        C738   1.408       .  A
C737        C742   1.396       .  A
C737        H744   1.082       .  S
C738        C739   1.410       .  A
C739        C740   1.407       .  A
C739       Br746   1.917       .  S
C740        C741   1.407       .  A
C740        H745   1.081       .  S
C741        C742   1.403       .  A
C742       Br743   1.921       .  S
C747        C748   1.400       .  A
C747        C752   1.406       .  A
C747        H754   1.084       .  S
C748        C749   1.418       .  A
C749        C750   1.395       .  A
C749       Br756   1.924       .  S
C750        C751   1.402       .  A
C750        H755   1.084       .  S
C751        C752   1.428       .  A
C752       Br753   1.919       .  S
C757        C758   1.406       .  A
C757        C762   1.404       .  A
C757        H764   1.084       .  S
C758        C759   1.418       .  A
C759        C760   1.403       .  A
C759       Br766   1.913       .  S
C760        C761   1.399       .  A
C760        H765   1.084       .  S
C761        C762   1.411       .  A
C762       Br763   1.918       .  S
C767        C768   1.410       .  A
C767        C772   1.391       .  A
C767        H774   1.083       .  S
C768        C769   1.410       .  A
C769        C770   1.407       .  A
C769       Br776   1.918       .  S
C770        C771   1.412       .  A
C770        H775   1.083       .  S
C771        C772   1.413       .  A
C772       Br773   1.926       .  S
C777        C778   1.405       .  A
C777        C782   1.395       .  A
C777        H784   1.084       .  S
C778        C779   1.410       .  A
C779        C780   1.406       .  A
C779       Br786   1.918       .  S
C780        C781   1.410       .  A
C780        H785   1.083       .  S
C781        C782   1.410       .  A
C782       Br783   1.921       .  S
C787        C788   1.404       .  A
C787        C792   1.394       .  A
C787        H794   1.077       .  S
C788        C789   1.413       .  A
C789        C790   1.407       .  A
C789       Br796   1.916       .  S
C790        C791   1.406       .  A
C790        H795   1.083       .  S
C791        C792   1.417       .  A
C792       Br793   1.925       .  S
C797        C798   1.398       .  A
C797        C802   1.406       .  A
C797        H804   1.083       .  S
C798        C799   1.417       .  A
C799        C800   1.399       .  A
C799       Br806   1.919       .  S
C800        C801   1.404       .  A
C800        H805   1.084       .  S
C801        C802   1.423       .  A
C802       Br803   1.903       .  S
C807        C808   1.407       .  A
C807        C812   1.403       .  A
C807        H814   1.084       .  S
C808        C809   1.405       .  A
C809        C810   1.401       .  A
C809       Br816   1.923       .  S
C810        C811   1.422       .  A
C810        H815   1.077       .  S
C811        C812   1.423       .  A
C812       Br813   1.915       .  S
C817        C818   1.410       .  A
C817        C822   1.410       .  A
C817        H824   1.083       .  S
C818        C819   1.410       .  A
C819        C820   1.393       .  A
C819       Br826   1.923       .  S
C820        C821   1.410       .  A
C820        H825   1.082       .  S
C821        C822   1.421       .  A
C822       Br823   1.924       .  S
C827        C828   1.399       .  A
C827        C832   1.405       .  A
C827        H834   1.083       .  S
C828        C829   1.412       .  A
C829        C830   1.398       .  A
C829       Br836   1.916       .  S
C830        C831   1.405       .  A
C830        H835   1.084       .  S
C831        C832   1.421       .  A
C832       Br833   1.912       .  S
C837        C838   1.408       .  A
C837        C842   1.395       .  A
C837        H844   1.083       .  S
C838        C839   1.411       .  A
C839        C840   1.409       .  A
C839       Br846   1.917       .  S
C840        C841   1.411       .  A
C840        H845   1.083       .  S
C841        C842   1.407       .  A
C842       Br843   1.922       .  S
C847        C848   1.400       .  A
C847        C852   1.395       .  A
C847        H854   1.084       .  S
C848        C849   1.404       .  A
C849        C850   1.398       .  A
C849       Br856   1.919       .  S
C850        C851   1.415       .  A
C850        H855   1.080       .  S
C851        C852   1.418       .  A
C852       Br853   1.911       .  S
C857        C858   1.405       .  A
C857        C862   1.406       .  A
C857        H864   1.083       .  S
C858        C859   1.412       .  A
C859        C860   1.389       .  A
C859       Br866   1.926       .  S
C860        C861   1.406       .  A
C860        H865   1.082       .  S
C861        C862   1.408       .  A
C862       Br863   1.909       .  S
C867        C868   1.403       .  A
C867        C872   1.399       .  A
C867        H874   1.084       .  S
C868        C869   1.408       .  A
C869        C870   1.408       .  A
C869       Br876   1.918       .  S
C870        C871   1.410       .  A
C870        H875   1.083       .  S
C871        C872   1.412       .  A
C872       Br873   1.922       .  S
C877        C878   1.404       .  A
C877        C882   1.390       .  A
C877        H884   1.083       .  S
C878        C879   1.414       .  A
C879        C880   1.400       .  A
C879       Br886   1.916       .  S
C880        C881   1.407       .  A
C880        H885   1.083       .  S
C881        C882   1.415       .  A
C882       Br883   1.925       .  S
C887        C888   1.408       .  A
C887        C892   1.400       .  A
C887        H894   1.084       .  S
C888        C889   1.417       .  A
C889        C890   1.404       .  A
C889       Br896   1.908       .  S
C890        C891   1.399       .  A
C890        H895   1.084       .  S
C891        C892   1.408       .  A
C892       Br893   1.918       .  S
C897        C898   1.414       .  A
C897        C902   1.417       .  A
C897        H904   1.081       .  S
C898        C899   1.413       .  A
C899        C900   1.393       .  A
C899       Br906   1.927       .  S
C900        C901   1.411       .  A
C900        H905   1.081       .  S
C901        C902   1.418       .  A
C902       Br903   1.915       .  S
C907        C908   1.409       .  A
C907        C912   1.402       .  A
C907        H914   1.084       .  S
C908        C909   1.419       .  A
C909        C910   1.395       .  A
C909       Br916   1.906       .  S
C910        C911   1.394       .  A
C910        H915   1.084       .  S
C911        C912   1.407       .  A
C912       Br913   1.918       .  S
C917        C918   1.410       .  A
C917        C922   1.406       .  A
C917        H924   1.083       .  S
C918        C919   1.418       .  A
C919        C920   1.393       .  A
C919       Br926   1.926       .  S
C920        C921   1.404       .  A
C920        H925   1.084       .  S
C921        C922   1.413       .  A
C922       Br923   1.915       .  S
C927        C928   1.407       .  A
C927        C932   1.407       .  A
C927        H934   1.083       .  S
C928        C929   1.409       .  A
C929        C930   1.395       .  A
C929       Br936   1.920       .  S
C930        C931   1.404       .  A
C930        H935   1.081       .  S
C931        C932   1.411       .  A
C932       Br933   1.918       .  S
C937        C938   1.411       .  A
C937        C942   1.408       .  A
C937        H944   1.083       .  S
C938        C939   1.413       .  A
C939        C940   1.395       .  A
C939       Br946   1.923       .  S
C940        C941   1.407       .  A
C940        H945   1.083       .  S
C941        C942   1.416       .  A
C942       Br943   1.921       .  S
C947        C948   1.403       .  A
C947        C952   1.400       .  A
C947        H954   1.084       .  S
C948        C949   1.405       .  A
C949        C950   1.401       .  A
C949       Br956   1.918       .  S
C950        C951   1.408       .  A
C950        H955   1.079       .  S
C951        C952   1.410       .  A
C952       Br953   1.917       .  S
C957        C958   1.407       .  A
C957        C962   1.404       .  A
C957        H964   1.084       .  S
C958        C959   1.402       .  A
C959        C960   1.395       .  A
C959       Br966   1.920       .  S
C960        C961   1.415       .  A
C960        H965   1.083       .  S
C961        C962   1.410       .  A
C962       Br963   1.910       .  S
C967        C968   1.406       .  A
C967        C972   1.397       .  A
C967        H974   1.083       .  S
C968        C969   1.413       .  A
C969        C970   1.405       .  A
C969       Br976   1.920       .  S
C970        C971   1.407       .  A
C970        H975   1.079       .  S
C971        C972   1.409       .  A
C972       Br973   1.920       .  S
C977        C978   1.395       .  A
C977        C982   1.400       .  A
C977        H984   1.084       .  S
C978        C979   1.410       .  A
C979        C980   1.401       .  A
C979       Br986   1.919       .  S
C980        C981   1.410       .  A
C980        H985   1.083       .  S
C981        C982   1.422       .  A
C982       Br983   1.905       .  S
C987        C988   1.403       .  A
C987        C992   1.402       .  A
C987        H994   1.083       .  S
C988        C989   1.424       .  A
C989        C990   1.404       .  A
C989       Br996   1.924       .  S
C990        C991   1.401       .  A
C990        H995   1.084       .  S
C991        C992   1.417       .  A
C992       Br993   1.918       .  S
C997        C998   1.407       .  A
C997       C1002   1.392       .  A
C997       H1004   1.083       .  S
C998        C999   1.415       .  A
C999       C1000   1.403       .  A
C999      Br1006   1.921       .  S
C1000      C1001   1.402       .  A
C1000      H1005   1.078       .  S
C1001      C1002   1.411       .  A
C1002     Br1003   1.925       .  S
C1007      C1008   1.404       .  A
C1007      C1012   1.381       .  A
C1007      H1014   1.084       .  S
C1008      C1009   1.406       .  A
C1009      C1010   1.406       .  A
C1009     Br1016   1.917       .  S
C1010      C1011   1.406       .  A
C1010      H1015   1.078       .  S
C1011      C1012   1.406       .  A
C1012     Br1013   1.921       .  S
C1017      C1018   1.396       .  A
C1017      C1022   1.399       .  A
C1017      H1024   1.084       .  S
C1018      C1019   1.419       .  A
C1019      C1020   1.399       .  A
C1019     Br1026   1.917       .  S
C1020      C1021   1.398       .  A
C1020      H1025   1.084       .  S
C1021      C1022   1.418       .  A
C1022     Br1023   1.913       .  S
C1027      C1028   1.409       .  A
C1027      C1032   1.398       .  A
C1027      H1034   1.082       .  S
C1028      C1029   1.408       .  A
C1029      C1030   1.400       .  A
C1029     Br1036   1.920       .  S
C1030      C1031   1.407       .  A
C1030      H1035   1.079       .  S
C1031      C1032   1.400       .  A
C1032     Br1033   1.917       .  S
