geometry optimzed in LAMMPS
_audit_creation_date              2020-11-30 
_audit_creation_method            'lammps2cif' 
_symmetry_space_group_name_H-M    'P1' 
_symmetry_Int_Tables_number       1 
_symmetry_cell_setting            triclinic 
loop_ 
_symmetry_equiv_pos_as_xyz 
  x,y,z 
_cell_length_a                    44.1274422 
_cell_length_b                    44.0905478052118 
_cell_length_c                    35.871250067034005 
_cell_angle_alpha                 89.9912297896443 
_cell_angle_beta                  90.05447543846115 
_cell_angle_gamma                 89.85355172438982 
loop_ 
_atom_site_label 
_atom_site_type_symbol 
_atom_site_fract_x 
_atom_site_fract_y 
_atom_site_fract_z 
_atom_site_charge 
C1          C  0.74956580  0.76792099  0.76972223     0.02500
C2          C  0.77245434  0.74539637  0.76786548     0.02500
C3          C  0.76857974  0.72068101  0.74348030    -0.18000
C4          C  0.74301927  0.71856581  0.72018469     0.02500
C5          C  0.72027676  0.74109885  0.72219989     0.02500
C6          C  0.72386071  0.76555194  0.74680833    -0.18000
H7          H  0.70655873  0.78302794  0.74796698     0.04500
H8          H  0.78575191  0.70309290  0.74230043     0.04500
C9          C  0.77894764  0.24491420  0.77381895     0.02500
C10         C  0.75575670  0.22278724  0.77393554     0.02500
C11         C  0.72955139  0.22744875  0.75208824    -0.18000
C12         C  0.72606708  0.25352388  0.72969564     0.02500
C13         C  0.74917701  0.27571479  0.72982747     0.02500
C14         C  0.77523913  0.27123573  0.75193723    -0.18000
H15         H  0.79289331  0.28822582  0.75182367     0.04500
H16         H  0.71192785  0.21042217  0.75209970     0.04500
C17         C  0.24995506  0.22564105  0.76020355     0.02500
C18         C  0.22671029  0.24767012  0.76282407     0.02500
C19         C  0.22843261  0.27429054  0.74119517    -0.18000
C20         C  0.25258968  0.27925525  0.71633006     0.02500
C21         C  0.27553685  0.25684702  0.71331203     0.02500
C22         C  0.27399239  0.23044949  0.73527710    -0.18000
H23         H  0.29164016  0.21345993  0.73285902     0.04500
H24         H  0.21108881  0.29151345  0.74427782     0.04500
C25         C  0.24455771  0.78550435  0.77499701     0.02500
C26         C  0.22176863  0.76310906  0.77331842     0.02500
C27         C  0.22558049  0.73798406  0.74982483    -0.18000
C28         C  0.25139369  0.73504235  0.72734744     0.02500
C29         C  0.27316370  0.75850152  0.72691360     0.02500
C30         C  0.26984992  0.78319210  0.75131376    -0.18000
H31         H  0.28683706  0.80087785  0.75158216     0.04500
H32         H  0.20860270  0.72029343  0.74959144     0.04500
C33         C  0.24616142  0.77956501  0.21770542     0.02500
C34         C  0.22382023  0.75657680  0.21748991     0.02500
C35         C  0.22689991  0.73182861  0.24200813    -0.18000
C36         C  0.25204512  0.72929936  0.26597441     0.02500
C37         C  0.27493499  0.75157852  0.26470080     0.02500
C38         C  0.27172617  0.77645439  0.24069242    -0.18000
H39         H  0.28889204  0.79401149  0.24068141     0.04500
H40         H  0.20958479  0.71443854  0.24251906     0.04500
C41         C  0.75722763  0.78130468  0.23561697     0.02500
C42         C  0.77755903  0.75662510  0.23253352     0.02500
C43         C  0.77289359  0.73063966  0.25453582    -0.18000
C44         C  0.74817336  0.72862305  0.27912180     0.02500
C45         C  0.72796024  0.75335121  0.28238798     0.02500
C46         C  0.73273506  0.77948145  0.26064644    -0.18000
H47         H  0.71682520  0.79812953  0.26242926     0.04500
H48         H  0.78854035  0.71178552  0.25237916     0.04500
C49         C  0.74966319  0.23123643  0.20679668     0.02500
C50         C  0.77357283  0.25250112  0.20766088     0.02500
C51         C  0.77092327  0.27854664  0.22993741    -0.18000
C52         C  0.74519318  0.28355980  0.25211617     0.02500
C53         C  0.72174993  0.26172174  0.25250180     0.02500
C54         C  0.72402843  0.23607202  0.22938257    -0.18000
H55         H  0.70614074  0.21924434  0.22984494     0.04500
H56         H  0.78921911  0.29492150  0.23031253     0.04500
O57         O  0.46732785  0.75478323  0.53930280    -0.81600
C58         C  0.50610974  0.85042398  0.44662534     0.97800
O59         O  0.48243921  0.84930957  0.46592186    -0.70700
O60         O  0.45690426  0.79882879  0.44326350    -0.74300
Al61       Al  0.46449331  0.81595855  0.49070649     1.49000
C62         C  0.45187794  0.77091384  0.43865991     0.93100
O63         O  0.52385079  0.74951734  0.45705279    -0.80500
O64         O  0.54146394  0.79514371  0.54782418    -0.74000
Al65       Al  0.49570483  0.75409758  0.49778764     1.90100
O66         O  0.55657314  0.78404093  0.47535398    -0.73100
O67         O  0.51706754  0.84701950  0.52955729    -0.73000
O68         O  0.52855469  0.83396333  0.45491432    -0.78600
O69         O  0.46937544  0.83453652  0.53786597    -0.76800
O70         O  0.49798566  0.79430158  0.49659123    -1.13000
O71         O  0.43759858  0.78844105  0.51385205    -0.72200
C72         C  0.44253409  0.76942971  0.53914167     0.98600
C73         C  0.54971492  0.76184815  0.45489404     0.95000
Al74       Al  0.53310485  0.81344891  0.50150902     1.55600
O75         O  0.46302765  0.75145263  0.46105917    -0.76800
C76         C  0.49239365  0.84958833  0.54727151     0.99100
C77         C  0.54216246  0.76713241  0.55459861     0.94000
O78         O  0.52779099  0.74859870  0.53419906    -0.82100
O79         O  0.76404446  0.97162956  0.03956920    -0.81600
C80         C  0.67230027  0.99749392  0.93321587     0.97800
O81         O  0.67220281  0.97527769  0.95556890    -0.70700
O82         O  0.72336269  0.94728196  0.94742306    -0.74300
Al83       Al  0.70313883  0.96111812  0.98964885     1.49000
C84         C  0.75144941  0.94414008  0.94326961     0.93100
O85         O  0.76960498  0.01842157  0.94937941    -0.80500
O86         O  0.71846491  0.04271047  0.03417345    -0.74000
Al87       Al  0.76443836  0.99499348  0.99435298     1.90100
O88         O  0.73456349  0.05213035  0.96216839    -0.73100
O89         O  0.66826311  0.01697310  0.01383539    -0.73000
O90         O  0.68796087  0.02058986  0.94056639    -0.78600
O91         O  0.68075862  0.97155466  0.03273481    -0.76800
O92         O  0.72409504  0.99535825  0.99065429    -1.13000
O93         O  0.72901721  0.93925871  0.02256589    -0.72200
C94         C  0.74942022  0.94743141  0.04502456     0.98600
C95         C  0.75719113  0.04383355  0.94341860     0.95000
Al96       Al  0.70403397  0.03017677  0.98788651     1.55600
O97         O  0.77007022  0.95875641  0.96345740    -0.76800
C98         C  0.66471692  0.99500407  0.03597632     0.99100
C99         C  0.74583669  0.04601659  0.04317274     0.94000
O100        O  0.76651642  0.03123992  0.02625744    -0.82100
O101        O  0.23789174  0.98328412  0.95934287    -0.81600
C102        C  0.33938913  0.01479263  0.04747123     0.97800
O103        O  0.33587212  0.99048581  0.02940136    -0.70700
O104        O  0.28503345  0.96648861  0.05073052    -0.74300
Al105      Al  0.30129925  0.97456560  0.00369377     1.49000
C106        C  0.25724944  0.96368955  0.05766177     0.93100
O107        O  0.24045662  0.03667257  0.04349671    -0.80500
O108        O  0.28339328  0.05253457  0.94949842    -0.74000
Al109      Al  0.24111097  0.00997848  0.00138207     1.90100
O110        O  0.27472658  0.06829565  0.02230313    -0.73100
O111        O  0.33407278  0.02617036  0.96555593    -0.73000
O112        O  0.32320071  0.03762997  0.04033785    -0.78600
O113        O  0.31925216  0.97953289  0.95638155    -0.76800
O114        O  0.28137158  0.00937329  0.00005811    -1.13000
O115        O  0.27152982  0.95039880  0.97935466    -0.72200
C116        C  0.25030650  0.95747452  0.95745569     0.98600
C117        C  0.25399643  0.06184827  0.04510303     0.95000
Al118      Al  0.30211897  0.04342921  0.99488557     1.55600
O119        O  0.23754809  0.97654215  0.03705809    -0.76800
C120        C  0.33475784  0.00202237  0.94649803     0.99100
C121        C  0.25543043  0.05558919  0.94387055     0.94000
O122        O  0.23637479  0.04346760  0.96581647    -0.82100
O123        O  0.53102642  0.26643483  0.53903484    -0.81600
C124        C  0.51192718  0.16149270  0.45150709     0.97800
O125        O  0.53407572  0.16552401  0.47321510    -0.70700
O126        O  0.55673375  0.21779831  0.45275334    -0.74300
Al127      Al  0.54564105  0.20204189  0.49923835     1.49000
C128        C  0.55720726  0.24541441  0.44351714     0.93100
O129        O  0.48187319  0.25947926  0.45038237    -0.80500
O130        O  0.46197609  0.21625382  0.54159343    -0.74000
Al131      Al  0.50670561  0.26042469  0.49471001     1.90100
O132        O  0.45270078  0.22186015  0.46721613    -0.73100
O133        O  0.49299460  0.16715320  0.53199026    -0.73000
O134        O  0.48775099  0.17612812  0.45566599    -0.78600
O135        O  0.53750123  0.18512289  0.54677188    -0.76800
O136        O  0.50957611  0.22015686  0.49753610    -1.13000
O137        O  0.56635447  0.23356428  0.52467544    -0.72200
C138        C  0.55718454  0.25540234  0.54421888     0.98600
C139        C  0.45819931  0.24377725  0.44580115     0.95000
Al140      Al  0.47663258  0.19726482  0.49897148     1.55600
O141        O  0.54156483  0.26485777  0.46140122    -0.76800
C142        C  0.51507324  0.16867051  0.55444653     0.99100
C143        C  0.45690542  0.24408638  0.54608199     0.94000
O144        O  0.47110225  0.26359994  0.52682434    -0.82100
C145        C  0.50562720  0.00794359  0.24104230    -0.02200
C146        C  0.49849608  0.00668291  0.75185591    -0.02200
O147        O  0.74918481  0.52183354  0.53713840    -0.81600
C148        C  0.84102012  0.48249162  0.43683841     0.97800
O149        O  0.84216251  0.50548070  0.45785670    -0.70700
O150        O  0.79417610  0.53923502  0.44645732    -0.74300
Al151      Al  0.81221067  0.52365993  0.48979042     1.49000
C152        C  0.76651880  0.54443268  0.44061714     0.93100
O153        O  0.74072708  0.47250723  0.44984271    -0.80500
O154        O  0.78798344  0.44458364  0.53581744    -0.74000
Al155      Al  0.74767494  0.49650286  0.49364864     1.90100
O156        O  0.77180997  0.43560619  0.46392749    -0.73100
O157        O  0.84074038  0.46458130  0.51574454    -0.73000
O158        O  0.82197406  0.46177737  0.44244050    -0.78600
O159        O  0.83260239  0.51132634  0.53343384    -0.76800
O160        O  0.78776761  0.49178963  0.49107308    -1.13000
O161        O  0.78830484  0.54920706  0.52101064    -0.72200
C162        C  0.76568772  0.54491035  0.54171922     0.98600
C163        C  0.75060975  0.44606779  0.44432954     0.95000
Al164      Al  0.80408910  0.45479686  0.48956508     1.55600
O165        O  0.74639195  0.53154419  0.46039331    -0.76800
C166        C  0.84660656  0.48657216  0.53698550     0.99100
C167        C  0.76079941  0.44599546  0.54616460     0.94000
O168        O  0.74166041  0.46207760  0.52815418    -0.82100
O169        O  0.02296079  0.74617323  0.03937402    -0.81600
C170        C  0.99182660  0.64668353  0.94504553     0.97800
O171        O  0.01631108  0.65164342  0.96182143    -0.70700
O172        O  0.04136786  0.70337630  0.94562447    -0.74300
Al173      Al  0.03104695  0.68425074  0.99096165     1.49000
C174        C  0.04398045  0.73157382  0.94104728     0.93100
O175        O  0.97004649  0.74867958  0.95380329    -0.80500
O176        O  0.94904678  0.70299016  0.04193110    -0.74000
Al177      Al  0.99643245  0.74514850  0.99640697     1.90100
O178        O  0.93914804  0.71115789  0.96713928    -0.73100
O179        O  0.97632948  0.65225497  0.02871507    -0.73000
O180        O  0.96830783  0.66136605  0.95322535    -0.78600
O181        O  0.02444725  0.66332913  0.03568809    -0.76800
O182        O  0.99612207  0.70446004  0.99485444    -1.13000
O183        O  0.05479210  0.71158489  0.01965727    -0.72200
C184        C  0.04798625  0.73222969  0.04240290     0.98600
C185        C  0.94599425  0.73389606  0.94761162     0.95000
Al186      Al  0.96126609  0.68388119  0.99751893     1.55600
O187        O  0.03022693  0.74994004  0.96235102    -0.76800
C188        C  0.00108724  0.64946336  0.04587663     0.99100
C189        C  0.94772558  0.73076332  0.04966602     0.94000
O190        O  0.96286208  0.74959582  0.03079261    -0.82100
O191        O  0.98048454  0.23171894  0.03970280    -0.81600
C192        C  0.01795832  0.33170218  0.95364561     0.97800
O193        O  0.99395030  0.33103476  0.97291370    -0.70700
O194        O  0.96387920  0.28280429  0.95299765    -0.74300
Al195      Al  0.97577143  0.29802862  0.99971659     1.49000
C196        C  0.96012108  0.25541697  0.94431859     0.93100
O197        O  0.03416509  0.23528232  0.95496579    -0.80500
O198        O  0.05123781  0.27459178  0.05252092    -0.74000
Al199      Al  0.00742552  0.23535543  0.99789645     1.90100
O200        O  0.06779520  0.26446230  0.98107756    -0.73100
O201        O  0.03043528  0.32774563  0.03465656    -0.73000
O202        O  0.04004784  0.31448690  0.96097216    -0.78600
O203        O  0.98375559  0.31531533  0.04696678    -0.76800
O204        O  0.00899910  0.27553187  0.00141804    -1.13000
O205        O  0.95088125  0.27024231  0.02556356    -0.72200
C206        C  0.95658320  0.24704933  0.04482409     0.98600
C207        C  0.06001844  0.24765026  0.95444233     0.95000
Al208      Al  0.04451089  0.29378650  0.00680784     1.55600
O209        O  0.97364262  0.23461531  0.96249019    -0.76800
C210        C  0.00735151  0.32975172  0.05512078     0.99100
C211        C  0.05248735  0.24633530  0.05748230     0.94000
O212        O  0.04067828  0.22819578  0.03387270    -0.82100
O213        O  0.26591846  0.48464664  0.54362543    -0.81600
C214        C  0.16722560  0.51453927  0.45087765     0.97800
O215        O  0.16950726  0.49097659  0.47069130    -0.70700
O216        O  0.22080340  0.46760991  0.45069098    -0.74300
Al217      Al  0.20371153  0.47548801  0.49726226     1.49000
C218        C  0.24872487  0.46493257  0.44446133     0.93100
O219        O  0.26438168  0.53792816  0.45914018    -0.80500
O220        O  0.21889138  0.55400549  0.55103980    -0.74000
Al221      Al  0.26318308  0.51131689  0.50125765     1.90100
O222        O  0.22934834  0.56952544  0.47877620    -0.73100
O223        O  0.16895420  0.52686787  0.53323029    -0.73000
O224        O  0.18217507  0.53791880  0.45883207    -0.78600
O225        O  0.18486325  0.48049550  0.54381434    -0.76800
O226        O  0.22298888  0.51047210  0.50128415    -1.13000
O227        O  0.23331229  0.45147320  0.52241274    -0.72200
C228        C  0.25382905  0.45871516  0.54515184     0.98600
C229        C  0.25058305  0.56298672  0.45669221     0.95000
Al230      Al  0.20156576  0.54439980  0.50517482     1.55600
O231        O  0.26793579  0.47791265  0.46555675    -0.76800
C232        C  0.16781324  0.50248688  0.55175811     0.99100
C233        C  0.24667590  0.55704547  0.55772157     0.94000
O234        O  0.26642249  0.54483449  0.53670389    -0.82100
C235        C  0.00943596  0.49281239  0.24869826    -0.02200
C236        C  0.00314537  0.48437091  0.74364581    -0.02200
C237        C  0.22658161  0.25593270  0.22937734     0.02500
C238        C  0.25144624  0.23597885  0.22492645     0.02500
C239        C  0.27792833  0.24064626  0.24592268    -0.18000
C240        C  0.28045468  0.26508147  0.27085583     0.02500
C241        C  0.25606541  0.28580955  0.27430314     0.02500
C242        C  0.22938916  0.28097397  0.25341800    -0.18000
H243        H  0.21074519  0.29683144  0.25578104     0.04500
H244        H  0.29645407  0.22463060  0.24355017     0.04500
C245        C  0.03334784  0.48512541  0.72063303    -0.11700
C246        C  0.04069274  0.46142214  0.69470475     0.03700
C247        C  0.06602747  0.46376575  0.67180314    -0.12300
C248        C  0.08483822  0.48896100  0.67354450     0.18600
C249        C  0.07930786  0.51161642  0.69997213    -0.09300
C250        C  0.05411115  0.50955746  0.72334080    -0.02300
H251        H  0.07055513  0.44619016  0.65139365     0.05100
C252        C  0.10715581  0.49320316  0.64379220     0.20600
H253        H  0.05010515  0.52857982  0.74155135     0.10300
C254        C  0.09881809  0.51116542  0.61328238    -0.15600
C255        C  0.11806985  0.51431524  0.58278969     0.03300
C256        C  0.14648172  0.49957757  0.58294499    -0.11000
C257        C  0.15468187  0.48137769  0.61356003    -0.01000
C258        C  0.13512042  0.47795612  0.64381735    -0.06200
H259        H  0.07684283  0.52212346  0.61283116     0.06300
H260        H  0.17636632  0.46984275  0.61400030     0.09700
Br261      Br  0.10479897  0.54668403  0.70348212    -0.05900
Br262      Br  0.01850012  0.42420749  0.68857048    -0.02800
Br263      Br  0.10292725  0.53679277  0.54078478     0.00000
Br264      Br  0.14727678  0.45221211  0.68428297    -0.04300
C265        C  0.03681112  0.49514084  0.27656027    -0.11700
C266        C  0.06776810  0.49720834  0.26476891     0.03700
C267        C  0.09087900  0.50190163  0.29093035    -0.12300
C268        C  0.08442578  0.50354582  0.32893342     0.18600
C269        C  0.05486794  0.49890388  0.34132282    -0.09300
C270        C  0.03183364  0.49412524  0.31570713    -0.02300
H271        H  0.11410701  0.50413500  0.28162121     0.05100
C272        C  0.10884016  0.50757826  0.35616794     0.20600
H273        H  0.01014524  0.48885144  0.32765704     0.10300
C274        C  0.11272915  0.53593937  0.37315710    -0.15600
C275        C  0.13203422  0.53918115  0.40383418     0.03300
C276        C  0.14765620  0.51355913  0.41769976    -0.11000
C277        C  0.14434494  0.48548614  0.39962869    -0.01000
C278        C  0.12507574  0.48234521  0.36919981    -0.06200
H279        H  0.09966370  0.55526226  0.36352526     0.06300
H280        H  0.15646685  0.46565847  0.40957654     0.09700
Br281      Br  0.04492331  0.49782938  0.39346263    -0.05900
Br282      Br  0.08138638  0.49472750  0.21397768    -0.02800
Br283      Br  0.13380249  0.57830383  0.42725293     0.00000
Br284      Br  0.11994434  0.44273643  0.34796820    -0.04300
C285        C  0.25766272  0.44447335  0.41352136    -0.11700
C286        C  0.28211468  0.42385002  0.41638210     0.03700
C287        C  0.28437774  0.39958879  0.39113358    -0.12300
C288        C  0.26264179  0.39551913  0.36295927     0.18600
C289        C  0.23961581  0.41730881  0.35846882    -0.09300
C290        C  0.23738628  0.44151131  0.38342315    -0.02300
H291        H  0.30222626  0.38292390  0.39470738     0.05100
C292        C  0.26229083  0.36706074  0.34095755     0.20600
H293        H  0.21858562  0.45720605  0.38048065     0.10300
C294        C  0.24023742  0.34513959  0.34900782    -0.15600
C295        C  0.23820237  0.31841216  0.32810550     0.03300
C296        C  0.25843312  0.31323747  0.29835971    -0.11000
C297        C  0.28087291  0.33498616  0.29076711    -0.01000
C298        C  0.28294976  0.36169063  0.31184772    -0.06200
H299        H  0.22442824  0.34893937  0.37166071     0.06300
H300        H  0.29649836  0.33141872  0.26790526     0.09700
Br301      Br  0.20969311  0.41404935  0.31981189    -0.05900
Br302      Br  0.31099274  0.42541103  0.45635736    -0.02800
Br303      Br  0.20808186  0.28929420  0.34218525     0.00000
Br304      Br  0.31346491  0.39076293  0.29911596    -0.04300
C305        C  0.01562246  0.46428794  0.22362119    -0.11700
C306        C  0.01910580  0.43422413  0.23819950     0.03700
C307        C  0.01947387  0.40925560  0.21401807    -0.12300
C308        C  0.01874433  0.41342834  0.17548366     0.18600
C309        C  0.02021282  0.44265584  0.16074600    -0.09300
C310        C  0.01893806  0.46746589  0.18440069    -0.02300
H311        H  0.01979992  0.38645284  0.22531254     0.05100
C312        C  0.01534017  0.38762296  0.15016829     0.20600
H313        H  0.02081768  0.48930445  0.17105973     0.10300
C314        C  0.98657345  0.38189563  0.13521765    -0.15600
C315        C  0.98306935  0.36263202  0.10465636     0.03300
C316        C  0.00887214  0.34872655  0.08881215    -0.11000
C317        C  0.03746615  0.35349569  0.10518125    -0.01000
C318        C  0.04082598  0.37279431  0.13561647    -0.06200
H319        H  0.96699177  0.39391983  0.14603831     0.06300
H320        H  0.05748890  0.34260992  0.09380429     0.09700
Br321      Br  0.02361060  0.44979076  0.10803982    -0.05900
Br322      Br  0.02141709  0.42434771  0.29033544    -0.02800
Br323      Br  0.94306356  0.35908405  0.08394460     0.00000
Br324      Br  0.08077581  0.38011970  0.15465425    -0.04300
C325        C  0.01961062  0.35287483  0.92234240    -0.11700
C326        C  0.02600367  0.34270072  0.88599034     0.03700
C327        C  0.02283560  0.36264534  0.85603511    -0.12300
C328        C  0.01466941  0.39302042  0.86195612     0.18600
C329        C  0.01004284  0.40358307  0.89858815    -0.09300
C330        C  0.01190054  0.38332027  0.92837327    -0.02300
H331        H  0.02651853  0.35439343  0.82794889     0.05100
C332        C  0.01095470  0.41331646  0.82963747     0.20600
H333        H  0.00737690  0.39133997  0.95638511     0.10300
C334        C  0.98292661  0.42708033  0.82308386    -0.15600
C335        C  0.97920409  0.44878354  0.79501919     0.03300
C336        C  0.00372516  0.45612055  0.77055832    -0.11000
C337        C  0.03163574  0.44069249  0.77741590    -0.01000
C338        C  0.03533831  0.42000566  0.80629424    -0.06200
H339        H  0.96401752  0.42187785  0.84129839     0.06300
H340        H  0.05218660  0.44608080  0.76259030     0.09700
Br341      Br  0.00223682  0.44553908  0.90948983    -0.05900
Br342      Br  0.03700793  0.30145627  0.87534727    -0.02800
Br343      Br  0.94032807  0.46835562  0.79545087     0.00000
Br344      Br  0.07535237  0.40417917  0.81510128    -0.04300
C345        C  0.07023156  0.23573330  0.09007131    -0.11700
C346        C  0.06800406  0.25142782  0.12429462     0.03700
C347        C  0.09184304  0.25024681  0.15003520    -0.12300
C348        C  0.11784325  0.23298032  0.14262112     0.18600
C349        C  0.11790063  0.21359412  0.11128397    -0.09300
C350        C  0.09436297  0.21536821  0.08492737    -0.02300
H351        H  0.09089060  0.26434279  0.17472795     0.05100
C352        C  0.14573817  0.23857381  0.16495065     0.20600
H353        H  0.09617080  0.20265243  0.05920240     0.10300
C354        C  0.14658976  0.23125134  0.20305320    -0.15600
C355        C  0.17233523  0.23768085  0.22470897     0.03300
C356        C  0.19792550  0.25129162  0.20820014    -0.11000
C357        C  0.19679363  0.25922486  0.17038934    -0.01000
C358        C  0.17085832  0.25350757  0.14898557    -0.06200
H359        H  0.12719504  0.22052792  0.21595202     0.06300
H360        H  0.21612888  0.27010878  0.15755260     0.09700
Br361      Br  0.15046120  0.18562777  0.10267475    -0.05900
Br362      Br  0.03340107  0.27609115  0.13613384    -0.02800
Br363      Br  0.17197323  0.22678530  0.27646738     0.00000
Br364      Br  0.17010524  0.26831945  0.09865063    -0.04300
C365        C  0.00574861  0.52174541  0.22383378    -0.11700
C366        C  0.98099336  0.52483307  0.19822657     0.03700
C367        C  0.97995744  0.54912244  0.17348988    -0.12300
C368        C  0.00304605  0.57059902  0.17250578     0.18600
C369        C  0.02580302  0.56989764  0.19971911    -0.09300
C370        C  0.02675639  0.54604693  0.22527653    -0.02300
H371        H  0.96193584  0.55018373  0.15295425     0.05100
C372        C  0.00432887  0.59126200  0.14036645     0.20600
H373        H  0.04438042  0.54700598  0.24601281     0.10300
C374        C  0.00011997  0.62251532  0.14537439    -0.15600
C375        C  0.99975855  0.64196581  0.11463627     0.03300
C376        C  0.00263121  0.62991010  0.07850716    -0.11000
C377        C  0.00718950  0.59884910  0.07347494    -0.01000
C378        C  0.00848042  0.57951528  0.10414517    -0.06200
H379        H  0.99701007  0.63171297  0.17314291     0.06300
H380        H  0.01000140  0.58968132  0.04562552     0.09700
Br381      Br  0.05710966  0.59998512  0.20191409    -0.05900
Br382      Br  0.94929596  0.49549814  0.19081181    -0.02800
Br383      Br  0.99555641  0.68473427  0.12304162     0.00000
Br384      Br  0.01685612  0.53737172  0.09523056    -0.04300
C385        C  0.99968117  0.51199940  0.77106354    -0.11700
C386        C  0.97500958  0.53345467  0.77322894     0.03700
C387        C  0.97498548  0.55587839  0.80089742    -0.12300
C388        C  0.99717946  0.55683721  0.82851725     0.18600
C389        C  0.02011629  0.53488091  0.82861434    -0.09300
C390        C  0.02175978  0.51378835  0.79984016    -0.02300
H391        H  0.95666751  0.57227898  0.80183104     0.05100
C392        C  0.99533654  0.58035422  0.85773963     0.20600
H393        H  0.04036994  0.49781832  0.80066627     0.10300
C394        C  0.97047780  0.58074139  0.88218171    -0.15600
C395        C  0.96846059  0.60242304  0.91062975     0.03300
C396        C  0.99172439  0.62399450  0.91490752    -0.11000
C397        C  0.01651940  0.62338054  0.89048256    -0.01000
C398        C  0.01810591  0.60240070  0.86150480    -0.06200
H399        H  0.95288676  0.56378814  0.87949582     0.06300
H400        H  0.03474683  0.63954251  0.89379679     0.09700
Br401      Br  0.04838150  0.53100268  0.86908409    -0.05900
Br402      Br  0.93769379  0.53411257  0.74520706    -0.02800
Br403      Br  0.93502683  0.59983709  0.94463053     0.00000
Br404      Br  0.05117152  0.60563693  0.82695424    -0.04300
C405        C  0.97837472  0.48363657  0.71276387    -0.11700
C406        C  0.97708319  0.50638442  0.68415729     0.03700
C407        C  0.95584610  0.50434174  0.65547916    -0.12300
C408        C  0.93561188  0.48023508  0.65369935     0.18600
C409        C  0.93704868  0.45715241  0.68037018    -0.09300
C410        C  0.95828355  0.45877536  0.70916868    -0.02300
H411        H  0.95453595  0.52221756  0.63476769     0.05100
C412        C  0.91229687  0.48047317  0.62453312     0.20600
H413        H  0.95937091  0.43966411  0.72785715     0.10300
C414        C  0.91669567  0.46360222  0.59190271    -0.15600
C415        C  0.89552822  0.46485719  0.56288784     0.03300
C416        C  0.86955488  0.48343876  0.56657616    -0.11000
C417        C  0.86512049  0.49961178  0.59975444    -0.01000
C418        C  0.88624236  0.49848947  0.62846602    -0.06200
H419        H  0.93694683  0.44978389  0.58881047     0.06300
H420        H  0.84454648  0.51281775  0.60379547     0.09700
Br421      Br  0.91034672  0.42292965  0.67835939    -0.05900
Br422      Br  0.00065000  0.54310061  0.68327790    -0.02800
Br423      Br  0.90425955  0.44193217  0.51866140     0.00000
Br424      Br  0.87844304  0.52186460  0.67251788    -0.04300
C425        C  0.86332430  0.47942423  0.40686923    -0.11700
C426        C  0.85467293  0.47483177  0.36953128     0.03700
C427        C  0.87664943  0.47471288  0.34154480    -0.12300
C428        C  0.90732296  0.47832260  0.35049316     0.18600
C429        C  0.91609619  0.48117662  0.38810988    -0.09300
C430        C  0.89406386  0.48219425  0.41588235    -0.02300
H431        H  0.86972107  0.47283369  0.31264803     0.05100
C432        C  0.92959300  0.48259088  0.32047220     0.20600
H433        H  0.90093876  0.48521345  0.44467792     0.10300
C434        C  0.94394218  0.51061711  0.31776976    -0.15600
C435        C  0.96817399  0.51500635  0.29358965     0.03300
C436        C  0.97886843  0.49055109  0.27076148    -0.11000
C437        C  0.96082009  0.46394167  0.27012564    -0.01000
C438        C  0.93716919  0.45951645  0.29533248    -0.06200
H439        H  0.93716002  0.52888421  0.33621334     0.06300
H440        H  0.96494718  0.44582842  0.25066353     0.09700
Br441      Br  0.95785325  0.48367893  0.40289286    -0.05900
Br442      Br  0.81318738  0.47120756  0.35494651    -0.02800
Br443      Br  0.98703222  0.55413536  0.29832378     0.00000
Br444      Br  0.91735923  0.42082280  0.29590313    -0.04300
C445        C  0.51392805  0.15084105  0.58956344    -0.11700
C446        C  0.53962423  0.14525789  0.61234861     0.03700
C447        C  0.53721166  0.12559242  0.64285498    -0.12300
C448        C  0.50953587  0.11199686  0.65181124     0.18600
C449        C  0.48346941  0.11960928  0.63136782    -0.09300
C450        C  0.48582448  0.13866468  0.60048742    -0.02300
H451        H  0.55734209  0.11983681  0.65877933     0.05100
C452        C  0.50917949  0.08625209  0.67793715     0.20600
H453        H  0.46547794  0.14349198  0.58453433     0.10300
C454        C  0.50577820  0.09078103  0.71621918    -0.15600
C455        C  0.50343542  0.06606877  0.74079912     0.03300
C456        C  0.50321499  0.03566746  0.72682859    -0.11000
C457        C  0.51105135  0.03232728  0.68856493    -0.01000
C458        C  0.51272348  0.05679742  0.66433009    -0.06200
H459        H  0.50434715  0.11381759  0.72700547     0.06300
H460        H  0.51628783  0.01043971  0.67643208     0.09700
Br461      Br  0.44443982  0.10336867  0.64363467    -0.05900
Br462      Br  0.57895867  0.16227842  0.60322457    -0.02800
Br463      Br  0.49886293  0.07684097  0.79206277     0.00000
Br464      Br  0.51978556  0.04874675  0.61240593    -0.04300
C465        C  0.51419633  0.13994559  0.42065676    -0.11700
C466        C  0.51185809  0.15012736  0.38362616     0.03700
C467        C  0.51252573  0.12923870  0.35448419    -0.12300
C468        C  0.51404264  0.09800095  0.36168934     0.18600
C469        C  0.51619302  0.08778367  0.39892895    -0.09300
C470        C  0.51680657  0.10887017  0.42808008    -0.02300
H471        H  0.51112848  0.13736114  0.32601850     0.05100
C472        C  0.51274746  0.07669808  0.32989213     0.20600
H473        H  0.51801183  0.10096053  0.45665636     0.10300
C474        C  0.53641582  0.05616464  0.32418111    -0.15600
C475        C  0.53523912  0.03465728  0.29558946     0.03300
C476        C  0.51056025  0.03455002  0.26953788    -0.11000
C477        C  0.48791330  0.05709459  0.27473609    -0.01000
C478        C  0.48822322  0.07687153  0.30503364    -0.06200
H479        H  0.55558896  0.05618126  0.34306803     0.06300
H480        H  0.46774808  0.05781681  0.25780886     0.09700
Br481      Br  0.51585671  0.04547474  0.41168188    -0.05900
Br482      Br  0.50744659  0.19234202  0.37153893    -0.02800
Br483      Br  0.56817197  0.00591062  0.29618395     0.00000
Br484      Br  0.45241977  0.10075827  0.31388371    -0.04300
C485        C  0.30755020  0.26648678  0.29554653    -0.11700
C486        C  0.33678883  0.27235449  0.28147452     0.03700
C487        C  0.36211404  0.27051300  0.30508014    -0.12300
C488        C  0.35886672  0.26242301  0.34269961     0.18600
C489        C  0.32953754  0.25727071  0.35696234    -0.09300
C490        C  0.30422988  0.25947209  0.33348067    -0.02300
H491        H  0.38448151  0.27461975  0.29383552     0.05100
C492        C  0.38628972  0.25790943  0.36617625     0.20600
H493        H  0.28192516  0.25479826  0.34460965     0.10300
C494        C  0.40248064  0.28303082  0.37970124    -0.15600
C495        C  0.42720248  0.27922622  0.40411257     0.03300
C496        C  0.43593950  0.24979914  0.41547183    -0.11000
C497        C  0.42055955  0.22475996  0.40019271    -0.01000
C498        C  0.39616582  0.22856528  0.37574721    -0.06200
H499        H  0.39528700  0.30574318  0.37209191     0.06300
H500        H  0.42719763  0.20190064  0.40792884     0.09700
Br501      Br  0.32297814  0.24646593  0.40813501    -0.05900
Br502      Br  0.34319718  0.28295631  0.23027349    -0.02800
Br503      Br  0.44651685  0.31495577  0.42303529     0.00000
Br504      Br  0.37681894  0.19291642  0.35639634    -0.04300
C505        C  0.47634955  0.01279532  0.21695947    -0.11700
C506        C  0.47366090  0.03745492  0.19113553     0.03700
C507        C  0.44883859  0.03940948  0.16706677    -0.12300
C508        C  0.42614381  0.01752124  0.16741338     0.18600
C509        C  0.42755294  0.99381192  0.19327124    -0.09300
C510        C  0.45223510  0.99153299  0.21748324    -0.02300
H511        H  0.44772777  0.05768809  0.14688020     0.05100
C512        C  0.40360932  0.01745010  0.13718484     0.20600
H513        H  0.45293239  0.97169242  0.23506008     0.10300
C514        C  0.40937930  0.99941630  0.10589751    -0.15600
C515        C  0.38919306  0.99877881  0.07598403     0.03300
C516        C  0.36232742  0.01624460  0.07737304    -0.11000
C517        C  0.35692724  0.03483432  0.10855857    -0.01000
C518        C  0.37740772  0.03558501  0.13834581    -0.06200
H519        H  0.43000266  0.98597945  0.10461279     0.06300
H520        H  0.33646017  0.04845938  0.11006659     0.09700
Br521      Br  0.39692257  0.96301345  0.19501769    -0.05900
Br522      Br  0.50242697  0.06989847  0.18598782    -0.02800
Br523      Br  0.40086589  0.97516423  0.03329713     0.00000
Br524      Br  0.36870108  0.06124424  0.18015821    -0.04300
C525        C  0.35432091  0.00058884  0.91295447    -0.11700
C526        C  0.35382352  0.97624147  0.88711312     0.03700
C527        C  0.37366376  0.97640666  0.85666597    -0.12300
C528        C  0.39417706  0.00025658  0.85136479     0.18600
C529        C  0.39363843  0.02509383  0.87603255    -0.09300
C530        C  0.37397733  0.02501798  0.90631396    -0.02300
H531        H  0.37336229  0.95760913  0.83720047     0.05100
C532        C  0.41694854  0.99872311  0.82120894     0.20600
H533        H  0.37454885  0.04421823  0.92514868     0.10300
C534        C  0.41783947  0.02173613  0.79443121    -0.15600
C535        C  0.44246229  0.02485686  0.77016741     0.03300
C536        C  0.46818917  0.00525936  0.77405353    -0.11000
C537        C  0.46404320  0.97918473  0.79670280    -0.01000
C538        C  0.43925584  0.97601625  0.82042566    -0.06200
H539        H  0.39919249  0.03772648  0.79277566     0.06300
H540        H  0.48159031  0.96209163  0.79824280     0.09700
Br541      Br  0.42008370  0.05941928  0.87103359    -0.05900
Br542      Br  0.32681036  0.94220459  0.89065323    -0.02800
Br543      Br  0.43498083  0.05332039  0.73058774     0.00000
Br544      Br  0.43914892  0.94191483  0.85377769    -0.04300
C545        C  0.24628741  0.08470518  0.07343072    -0.11700
C546        C  0.25090511  0.07932023  0.11171063     0.03700
C547        C  0.24954306  0.10355756  0.13700102    -0.12300
C548        C  0.24353289  0.13325263  0.12461926     0.18600
C549        C  0.23785811  0.13825791  0.08641396    -0.09300
C550        C  0.23940114  0.11412749  0.06128987    -0.02300
H551        H  0.25443941  0.09944724  0.16614700     0.05100
C552        C  0.24557713  0.15901562  0.15114609     0.20600
H553        H  0.23626866  0.11854650  0.03184865     0.10300
C554        C  0.26721457  0.18176819  0.14485224    -0.15600
C555        C  0.26902242  0.20715966  0.16809253     0.03300
C556        C  0.24992241  0.20948013  0.19940609    -0.11000
C557        C  0.22891789  0.18629235  0.20636425    -0.01000
C558        C  0.22622433  0.16151508  0.18221408    -0.06200
H559        H  0.28230745  0.18012024  0.12111301     0.06300
H560        H  0.21425670  0.18764222  0.23045200     0.09700
Br561      Br  0.22873158  0.17772402  0.06670416    -0.05900
Br562      Br  0.26237094  0.04005814  0.13004403    -0.02800
Br563      Br  0.29649891  0.23890980  0.15441069     0.00000
Br564      Br  0.19460870  0.13277354  0.19167760    -0.04300
C565        C  0.53194581  0.00525329  0.21165783    -0.11700
C566        C  0.53144058  0.98321850  0.18222713     0.03700
C567        C  0.55434688  0.98246279  0.15537777    -0.12300
C568        C  0.57818429  0.00308712  0.15605032     0.18600
C569        C  0.57910460  0.02517858  0.18403179    -0.09300
C570        C  0.55628045  0.02630380  0.21101982    -0.02300
H571        H  0.55351476  0.96555821  0.13344453     0.05100
C572        C  0.60100795  0.00179852  0.12605166     0.20600
H573        H  0.55745187  0.04487529  0.23050919     0.10300
C574        C  0.59374025  0.01398008  0.09107687    -0.15600
C575        C  0.61398258  0.01169430  0.06122793     0.03300
C576        C  0.64213851  0.99700868  0.06624042    -0.11000
C577        C  0.64919408  0.98449094  0.10126543    -0.01000
C578        C  0.62887112  0.98679372  0.13106517    -0.06200
H579        H  0.57198671  0.02490424  0.08687015     0.06300
H580        H  0.67071949  0.97314357  0.10559294     0.09700
Br581      Br  0.61046971  0.05522011  0.18546479    -0.05900
Br582      Br  0.50117250  0.95231505  0.17579233    -0.02800
Br583      Br  0.60093674  0.02700310  0.01371038     0.00000
Br584      Br  0.63964134  0.96859472  0.17784680    -0.04300
C585        C  0.65303862  0.99744571  0.89914927    -0.11700
C586        C  0.63947975  0.97083508  0.88462441     0.03700
C587        C  0.61888141  0.97300148  0.85503203    -0.12300
C588        C  0.61161727  0.00110448  0.83914640     0.18600
C589        C  0.62665776  0.02724916  0.85159378    -0.09300
C590        C  0.64725269  0.02526542  0.88112316    -0.02300
H591        H  0.60721290  0.95276104  0.84557180     0.05100
C592        C  0.58375224  0.00352634  0.81655189     0.20600
H593        H  0.65770255  0.04599060  0.89108850     0.10300
C594        C  0.55656569  0.00699452  0.83566093    -0.15600
C595        C  0.52877019  0.00892287  0.81718265     0.03300
C596        C  0.52749089  0.00596252  0.77717766    -0.11000
C597        C  0.55585622  0.00396917  0.75839817    -0.01000
C598        C  0.58350998  0.00245274  0.77759631    -0.06200
H599        H  0.55718572  0.00875576  0.86576241     0.06300
H600        H  0.55648851  0.00245472  0.72841109     0.09700
Br601      Br  0.61790890  0.06646034  0.83099903    -0.05900
Br602      Br  0.64732144  0.93082863  0.90361411    -0.02800
Br603      Br  0.49676459  0.01874052  0.85183122     0.00000
Br604      Br  0.62028040  0.99820876  0.74967344    -0.04300
C605        C  0.49050609  0.87120726  0.57832205    -0.11700
C606        C  0.47641728  0.86371351  0.61239033     0.03700
C607        C  0.47615845  0.88472768  0.64150201    -0.12300
C608        C  0.48968200  0.91316760  0.63714967     0.18600
C609        C  0.50355357  0.92079501  0.60315649    -0.09300
C610        C  0.50401788  0.89976776  0.57410757    -0.02300
H611        H  0.46574051  0.87875210  0.66781871     0.05100
C612        C  0.48986588  0.93435847  0.66870319     0.20600
H613        H  0.51493465  0.90575392  0.54809785     0.10300
C614        C  0.51042368  0.92991224  0.69788509    -0.15600
C615        C  0.51272718  0.95077567  0.72722132     0.03300
C616        C  0.49520819  0.97809141  0.72610807    -0.11000
C617        C  0.47164324  0.97943540  0.69911083    -0.01000
C618        C  0.46943441  0.95854235  0.67028118    -0.06200
H619        H  0.52457454  0.90980752  0.69797279     0.06300
H620        H  0.45625227  0.99838618  0.69857730     0.09700
Br621      Br  0.52268582  0.95933684  0.59553001    -0.05900
Br622      Br  0.45954352  0.82447136  0.62213232    -0.02800
Br623      Br  0.53635373  0.93643048  0.76881586     0.00000
Br624      Br  0.43887399  0.96473522  0.63289491    -0.04300
C625        C  0.50693353  0.87116704  0.41441706    -0.11700
C626        C  0.48029373  0.87840911  0.39418573     0.03700
C627        C  0.48215797  0.89658593  0.36269233    -0.12300
C628        C  0.50934228  0.91060031  0.35265606     0.18600
C629        C  0.53547961  0.90550053  0.37448658    -0.09300
C630        C  0.53442548  0.88475049  0.40404226    -0.02300
H631        H  0.46170230  0.90120550  0.34693670     0.05100
C632        C  0.50809408  0.93344773  0.32256701     0.20600
H633        H  0.55469914  0.88061275  0.42031117     0.10300
C634        C  0.48640436  0.95640027  0.32534964    -0.15600
C635        C  0.48293377  0.97820844  0.29769122     0.03300
C636        C  0.50347495  0.97927092  0.26678981    -0.11000
C637        C  0.52440782  0.95481783  0.26376144    -0.01000
C638        C  0.52604162  0.93173415  0.29042412    -0.06200
H639        H  0.47154914  0.95714262  0.34940277     0.06300
H640        H  0.54084346  0.95364903  0.24166993     0.09700
Br641      Br  0.57174899  0.92892688  0.36832498    -0.05900
Br642      Br  0.43993381  0.86645589  0.40813259    -0.02800
Br643      Br  0.44875135  0.00465251  0.30579294     0.00000
Br644      Br  0.55238549  0.89788882  0.28084864    -0.04300
C645        C  0.74429017  0.31065020  0.27665239    -0.11700
C646        C  0.72386810  0.33478236  0.27049868     0.03700
C647        C  0.72216793  0.35873999  0.29609734    -0.12300
C648        C  0.74134164  0.35960266  0.32732165     0.18600
C649        C  0.76311413  0.33638032  0.33204429    -0.09300
C650        C  0.76430358  0.31216708  0.30693352    -0.02300
H651        H  0.70568437  0.37668908  0.29173681     0.05100
C652        C  0.73767348  0.38383715  0.35572925     0.20600
H653        H  0.78075699  0.29417652  0.31129378     0.10300
C654        C  0.72998089  0.37545985  0.39225167    -0.15600
C655        C  0.73097421  0.39654773  0.42127487     0.03300
C656        C  0.73908480  0.42679434  0.41394792    -0.11000
C657        C  0.74335676  0.43601424  0.37688852    -0.01000
C658        C  0.74315564  0.41470430  0.34778668    -0.06200
H659        H  0.72471040  0.35200849  0.39852958     0.06300
H660        H  0.74929217  0.45931978  0.37096374     0.09700
Br661      Br  0.79227023  0.33698419  0.37181676    -0.05900
Br662      Br  0.69912930  0.33683656  0.22661960    -0.02800
Br663      Br  0.72240658  0.38284796  0.47093399     0.00000
Br664      Br  0.75371870  0.42826431  0.29864306    -0.04300
C665        C  0.69616778  0.26380836  0.27930883    -0.11700
C666        C  0.70009271  0.25538098  0.31688502     0.03700
C667        C  0.67574004  0.25719830  0.34173395    -0.12300
C668        C  0.64706102  0.26684448  0.32967033     0.18600
C669        C  0.64298891  0.27513835  0.29207586    -0.09300
C670        C  0.66743152  0.27339956  0.26715312    -0.02300
H671        H  0.67885354  0.24981317  0.37032570     0.05100
C672        C  0.62111960  0.26363545  0.35553581     0.20600
H673        H  0.66392185  0.27920784  0.23810847     0.10300
C674        C  0.61364093  0.28696480  0.38059554    -0.15600
C675        C  0.59182222  0.28241603  0.40866231     0.03300
C676        C  0.57709899  0.25402106  0.41173113    -0.11000
C677        C  0.58408535  0.23131642  0.38551179    -0.01000
C678        C  0.60584749  0.23582262  0.35794839    -0.06200
H679        H  0.62568355  0.30832601  0.37924811     0.06300
H680        H  0.57339571  0.20930014  0.38725192     0.09700
Br681      Br  0.60421694  0.28783749  0.27354798    -0.05900
Br682      Br  0.73759528  0.23875399  0.33474901    -0.02800
Br683      Br  0.58562073  0.31465061  0.44382164     0.00000
Br684      Br  0.61556610  0.20238723  0.32581144    -0.04300
C685        C  0.80154416  0.24812456  0.18543565    -0.11700
C686        C  0.82836959  0.23708599  0.20194567     0.03700
C687        C  0.85458692  0.23351887  0.18040322    -0.12300
C688        C  0.85477181  0.24159644  0.14256831     0.18600
C689        C  0.82802580  0.25310492  0.12620691    -0.09300
C690        C  0.80158346  0.25592270  0.14754292    -0.02300
H691        H  0.87507192  0.22501353  0.19335043     0.05100
C692        C  0.88342493  0.23959350  0.12112461     0.20600
H693        H  0.78120088  0.26487815  0.13480895     0.10300
C694        C  0.88651153  0.21793215  0.09258970    -0.15600
C695        C  0.91202988  0.21794408  0.06923946     0.03300
C696        C  0.93483690  0.23975211  0.07445857    -0.11000
C697        C  0.93245947  0.26029582  0.10416808    -0.01000
C698        C  0.90710998  0.26031628  0.12748740    -0.06200
H699        H  0.86849251  0.20181580  0.08756380     0.06300
H700        H  0.94956023  0.27765552  0.10780833     0.09700
Br701      Br  0.82711066  0.26718098  0.07559643    -0.05900
Br702      Br  0.83026487  0.22695540  0.25390906    -0.02800
Br703      Br  0.91368658  0.18973349  0.02863159     0.00000
Br704      Br  0.90458374  0.29104031  0.16525973    -0.04300
C705        C  0.75229268  0.06891806  0.07257831    -0.11700
C706        C  0.77823216  0.08767843  0.07256721     0.03700
C707        C  0.77924138  0.11330790  0.09590033    -0.12300
C708        C  0.75479952  0.12066117  0.11939522     0.18600
C709        C  0.72972762  0.10106717  0.12077119    -0.09300
C710        C  0.72882004  0.07549409  0.09792024    -0.02300
H711        H  0.79868007  0.12822277  0.09466668     0.05100
C712        C  0.75487094  0.14945313  0.14093340     0.20600
H713        H  0.70879852  0.06132616  0.09883826     0.10300
C714        C  0.73348323  0.17206450  0.13224143    -0.15600
C715        C  0.73163299  0.19879152  0.15324185     0.03300
C716        C  0.75145332  0.20336813  0.18350688    -0.11000
C717        C  0.77311931  0.18095785  0.19185855    -0.01000
C718        C  0.77510154  0.15429914  0.17071277    -0.06200
H719        H  0.71800885  0.16876334  0.10919989     0.06300
H720        H  0.78822757  0.18397039  0.21524102     0.09700
Br721      Br  0.69552661  0.10860574  0.15256000    -0.05900
Br722      Br  0.81171152  0.08127165  0.03939229    -0.02800
Br723      Br  0.70207231  0.22866196  0.13913211     0.00000
Br724      Br  0.80495530  0.12466567  0.18451470    -0.04300
C725        C  0.70108441  0.75167438  0.30726350    -0.11700
C726        C  0.69965946  0.76829736  0.34071514     0.03700
C727        C  0.67434964  0.76560255  0.36404356    -0.12300
C728        C  0.65013208  0.74639817  0.35467477     0.18600
C729        C  0.65155890  0.72981296  0.32110686    -0.09300
C730        C  0.67693368  0.73245511  0.29783552    -0.02300
H731        H  0.67344282  0.77874102  0.38954909     0.05100
C732        C  0.62300992  0.74549976  0.37928414     0.20600
H733        H  0.67785750  0.71944225  0.27224006     0.10300
C734        C  0.59561232  0.75784845  0.36632233    -0.15600
C735        C  0.57067953  0.76115055  0.39012841     0.03300
C736        C  0.57262018  0.75178219  0.42753691    -0.11000
C737        C  0.59969445  0.73853779  0.44030588    -0.01000
C738        C  0.62472464  0.73519255  0.41648106    -0.06200
H739        H  0.59411239  0.76638086  0.33806526     0.06300
H740        H  0.60176394  0.73190070  0.46927869     0.09700
Br741      Br  0.61978593  0.70274591  0.30633713    -0.05900
Br742      Br  0.73214104  0.79428611  0.35607216    -0.02800
Br743      Br  0.53575417  0.78201167  0.37162933     0.00000
Br744      Br  0.66099687  0.71711178  0.43610771    -0.04300
C745        C  0.75821378  0.56761832  0.41208998    -0.11700
C746        C  0.77888651  0.57677835  0.38398483     0.03700
C747        C  0.77275229  0.60242286  0.36232385    -0.12300
C748        C  0.74607601  0.61911777  0.36722377     0.18600
C749        C  0.72426048  0.60875774  0.39278335    -0.09300
C750        C  0.73047088  0.58330890  0.41512716    -0.02300
H751        H  0.78926682  0.60979366  0.34188792     0.05100
C752        C  0.74248734  0.64781351  0.34616525     0.20600
H753        H  0.71400540  0.57653287  0.43589594     0.10300
C754        C  0.73495981  0.64674307  0.30819847    -0.15600
C755        C  0.73573941  0.67302016  0.28625062     0.03300
C756        C  0.74457386  0.70085905  0.30214493    -0.11000
C757        C  0.75104920  0.70211920  0.34041205    -0.01000
C758        C  0.75008714  0.67589434  0.36241242    -0.06200
H759        H  0.72910066  0.62526649  0.29544726     0.06300
H760        H  0.75771923  0.72343361  0.35297561     0.09700
Br761      Br  0.68599200  0.62895712  0.39814139    -0.05900
Br762      Br  0.81584625  0.55547618  0.37276219    -0.02800
Br763      Br  0.72435165  0.66988871  0.23483370     0.00000
Br764      Br  0.76105433  0.67915293  0.41400905    -0.04300
C765        C  0.75422014  0.92841273  0.07854825    -0.11700
C766        C  0.78279060  0.91704197  0.08945505     0.03700
C767        C  0.78464222  0.89477724  0.11750124    -0.12300
C768        C  0.75836112  0.88413376  0.13532366     0.18600
C769        C  0.73024852  0.89742783  0.12650099    -0.09300
C770        C  0.72832638  0.91895723  0.09805706    -0.02300
H771        H  0.80641587  0.88493298  0.12438744     0.05100
C772        C  0.75993547  0.85749734  0.16054226     0.20600
H773        H  0.70628801  0.92789097  0.09051614     0.10300
C774        C  0.77034895  0.86082357  0.19731360    -0.15600
C775        C  0.76987996  0.83620451  0.22216688     0.03300
C776        C  0.75923432  0.80773228  0.21012932    -0.11000
C777        C  0.74952789  0.80430162  0.17316699    -0.01000
C778        C  0.74970657  0.82884989  0.14848680    -0.06200
H779        H  0.77824605  0.88271929  0.20688068     0.06300
H780        H  0.74131692  0.78250149  0.16365103     0.09700
Br781      Br  0.69366423  0.88624317  0.15186482    -0.05900
Br782      Br  0.81941606  0.92928018  0.06511391    -0.02800
Br783      Br  0.78391786  0.84230050  0.27218940     0.00000
Br784      Br  0.73536896  0.82224467  0.09861935    -0.04300
C785        C  0.92744036  0.74041355  0.08080213    -0.11700
C786        C  0.91302096  0.76913788  0.08251700     0.03700
C787        C  0.89027811  0.77453019  0.10921727    -0.12300
C788        C  0.88215809  0.75208855  0.13510852     0.18600
C789        C  0.89828573  0.72456495  0.13539007    -0.09300
C790        C  0.92014597  0.71876759  0.10818827    -0.02300
H791        H  0.87812610  0.79592059  0.10892451     0.05100
C792        C  0.85482886  0.75586580  0.15884964     0.20600
H793        H  0.93097552  0.69671206  0.10801507     0.10300
C794        C  0.82940383  0.73783751  0.15119010    -0.15600
C795        C  0.80400731  0.73830947  0.17446626     0.03300
C796        C  0.80354693  0.75718583  0.20611636    -0.11000
C797        C  0.82853783  0.77608001  0.21315685    -0.01000
C798        C  0.85409129  0.77552876  0.18979948    -0.06200
H799        H  0.82958101  0.72283461  0.12724593     0.06300
H800        H  0.82846164  0.79073541  0.23739970     0.09700
Br801      Br  0.89092833  0.69393964  0.17230599    -0.05900
Br802      Br  0.92147262  0.80119757  0.04797206    -0.02800
Br803      Br  0.77036408  0.71293868  0.16162532     0.00000
Br804      Br  0.88800610  0.80066848  0.20222217    -0.04300
C805        C  0.25375321  0.70375490  0.29287927    -0.11700
C806        C  0.23396825  0.70220306  0.32357122     0.03700
C807        C  0.23674961  0.67851446  0.34929964    -0.12300
C808        C  0.25963340  0.65649465  0.34567321     0.18600
C809        C  0.27951393  0.65810413  0.31499170    -0.09300
C810        C  0.27628753  0.68146414  0.28878587    -0.02300
H811        H  0.22115894  0.67745913  0.37257873     0.05100
C812        C  0.26176212  0.63189619  0.37388604     0.20600
H813        H  0.29167935  0.68245644  0.26534665     0.10300
C814        C  0.25680565  0.60166983  0.36300158    -0.15600
C815        C  0.25510491  0.57839870  0.38956089     0.03300
C816        C  0.25830122  0.58526594  0.42768673    -0.11000
C817        C  0.26411594  0.61525190  0.43849012    -0.01000
C818        C  0.26604704  0.63844869  0.41202281    -0.06200
H819        H  0.25291860  0.59637756  0.33395193     0.06300
H820        H  0.26626971  0.62077437  0.46776261     0.09700
Br821      Br  0.31229794  0.62992603  0.30863632    -0.05900
Br822      Br  0.20384332  0.73278630  0.33257971    -0.02800
Br823      Br  0.24493107  0.53831019  0.37289831     0.00000
Br824      Br  0.27392940  0.67876208  0.42964377    -0.04300
C825        C  0.30143442  0.75048929  0.29002277    -0.11700
C826        C  0.32974057  0.73954070  0.27788991     0.03700
C827        C  0.35447395  0.73937455  0.30237507    -0.12300
C828        C  0.35164735  0.75068212  0.33881156     0.18600
C829        C  0.32344259  0.76246923  0.35051154    -0.09300
C830        C  0.29851009  0.76175237  0.32637193    -0.02300
H831        H  0.37618309  0.73096793  0.29272793     0.05100
C832        C  0.37899220  0.75263713  0.36279792     0.20600
H833        H  0.27695985  0.77088996  0.33556161     0.10300
C834        C  0.40267711  0.77176460  0.35184791    -0.15600
C835        C  0.42784425  0.77631162  0.37488622     0.03300
C836        C  0.42963381  0.76171069  0.40985811    -0.11000
C837        C  0.40685274  0.74098640  0.41966424    -0.01000
C838        C  0.38175644  0.73627299  0.39639682    -0.06200
H839        H  0.40126031  0.78375520  0.32555730     0.06300
H840        H  0.40784512  0.72942987  0.44627197     0.09700
Br841      Br  0.31844660  0.78228628  0.39775258    -0.05900
Br842      Br  0.33573274  0.72536939  0.22787776    -0.02800
Br843      Br  0.45933031  0.80191877  0.35629328     0.00000
Br844      Br  0.35192295  0.70732638  0.41168100    -0.04300
C845        C  0.19705932  0.75796597  0.19221701    -0.11700
C846        C  0.20007147  0.75496358  0.15323077     0.03700
C847        C  0.17435491  0.75604065  0.13032016    -0.12300
C848        C  0.14525032  0.75876347  0.14567323     0.18600
C849        C  0.14210636  0.76055677  0.18466252    -0.09300
C850        C  0.16788477  0.76061512  0.20755121    -0.02300
H851        H  0.17690678  0.75288017  0.10056139     0.05100
C852        C  0.11864851  0.75347351  0.12130791     0.20600
H853        H  0.16513967  0.76192175  0.23748343     0.10300
C854        C  0.10981600  0.72351039  0.11550091    -0.15600
C855        C  0.08623417  0.71639885  0.09120575     0.03300
C856        C  0.07039176  0.73967332  0.07201658    -0.11000
C857        C  0.07861518  0.76998909  0.07884070    -0.01000
C858        C  0.10279918  0.77696461  0.10303298    -0.06200
H859        H  0.12181832  0.70534139  0.12965899     0.06300
H860        H  0.06711273  0.78817047  0.06414735     0.09700
Br861      Br  0.10295270  0.76055057  0.20779062    -0.05900
Br862      Br  0.23808527  0.74504949  0.13033125    -0.02800
Br863      Br  0.07732412  0.67410131  0.08655088     0.00000
Br864      Br  0.11425867  0.81850716  0.10939639    -0.04300
C865        C  0.24309511  0.80757833  0.19518287    -0.11700
C866        C  0.22247449  0.83068817  0.20504673     0.03700
C867        C  0.22086993  0.85731782  0.18377042    -0.12300
C868        C  0.24007853  0.86149332  0.15308722     0.18600
C869        C  0.26110596  0.83863985  0.14374253    -0.09300
C870        C  0.26261979  0.81207439  0.16489888    -0.02300
H871        H  0.20537716  0.87518276  0.19187188     0.05100
C872        C  0.24022462  0.89080196  0.13308082     0.20600
H873        H  0.27924913  0.79494613  0.15788378     0.10300
C874        C  0.26362500  0.91125865  0.14064143    -0.15600
C875        C  0.26797186  0.93682883  0.11832634     0.03300
C876        C  0.24848978  0.94238779  0.08768420    -0.11000
C877        C  0.22345949  0.92321054  0.08217663    -0.01000
C878        C  0.21935323  0.89741677  0.10450987    -0.06200
H879        H  0.27947313  0.90650457  0.16295736     0.06300
H880        H  0.20841383  0.92692374  0.05876468     0.09700
Br881      Br  0.28863118  0.84300091  0.10270328    -0.05900
Br882      Br  0.19838145  0.82813835  0.24940078    -0.02800
Br883      Br  0.30179058  0.96242934  0.13049120     0.00000
Br884      Br  0.18669441  0.87040502  0.09296862    -0.04300
C885        C  0.29875860  0.75805132  0.70012010    -0.11700
C886        C  0.29365014  0.76139336  0.66158557     0.03700
C887        C  0.31785296  0.75914559  0.63666686    -0.12300
C888        C  0.34759146  0.75451993  0.64947746     0.18600
C889        C  0.35291288  0.75250241  0.68816069    -0.09300
C890        C  0.32853936  0.75419484  0.71312730    -0.02300
H891        H  0.31364559  0.76220505  0.60719615     0.05100
C892        C  0.37272338  0.75717954  0.62228815     0.20600
H893        H  0.33281670  0.75261862  0.74274145     0.10300
C894        C  0.37593333  0.78487093  0.60395488    -0.15600
C895        C  0.39790373  0.78905564  0.57667860     0.03300
C896        C  0.41865229  0.76529369  0.56801219    -0.11000
C897        C  0.41552326  0.73739893  0.58667972    -0.01000
C898        C  0.39228296  0.73300153  0.61298832    -0.06200
H899        H  0.36073503  0.80344011  0.61062768     0.06300
H900        H  0.43043737  0.71868357  0.57985637     0.09700
Br901      Br  0.39308859  0.74964588  0.70833843     0.04500
Br902      Br  0.25460310  0.77209992  0.64189841    -0.02800
Br903      Br  0.39723806  0.82851488  0.55366377     0.00000
Br904      Br  0.38658064  0.69323338  0.63335469    -0.04300
C905        C  0.25524222  0.57742891  0.58865290    -0.11700
C906        C  0.23656306  0.58020338  0.62051962     0.03700
C907        C  0.24028400  0.60468512  0.64467217    -0.12300
C908        C  0.26195201  0.62700706  0.63745227     0.18600
C909        C  0.28206683  0.62328944  0.60736268    -0.09300
C910        C  0.27881416  0.59838166  0.58336361    -0.02300
H911        H  0.22497152  0.60732108  0.66802108     0.05100
C912        C  0.26049178  0.65540323  0.65913919     0.20600
H913        H  0.29310911  0.59680415  0.55893731     0.10300
C914        C  0.28091643  0.66035101  0.68841543    -0.15600
C915        C  0.27807521  0.68594513  0.71127000     0.03300
C916        C  0.25492910  0.70736311  0.70428995    -0.11000
C917        C  0.23427349  0.70205336  0.67533902    -0.01000
C918        C  0.23693585  0.67639932  0.65277489    -0.06200
H919        H  0.29848253  0.64375048  0.69422390     0.06300
H920        H  0.21599617  0.71802184  0.67023420     0.09700
Br921      Br  0.31208601  0.65325151  0.59596709    -0.05900
Br922      Br  0.20424076  0.55248959  0.63168600    -0.02800
Br923      Br  0.30434001  0.68903515  0.75371900     0.00000
Br924      Br  0.20771331  0.67078091  0.61371480    -0.04300
C925        C  0.24252624  0.81134611  0.80135955    -0.11700
C926        C  0.26292171  0.81399725  0.83135300     0.03700
C927        C  0.26102896  0.83891026  0.85536100    -0.12300
C928        C  0.23809157  0.86084667  0.85116724     0.18600
C929        C  0.21726983  0.85781984  0.82153991    -0.09300
C930        C  0.21983337  0.83339513  0.79672316    -0.02300
H931        H  0.27721973  0.84086391  0.87795829     0.05100
C932        C  0.23640598  0.88633329  0.87828314     0.20600
H933        H  0.20384435  0.83140673  0.77393400     0.10300
C934        C  0.23931832  0.91646659  0.86581134    -0.15600
C935        C  0.24116148  0.94060472  0.89124092     0.03300
C936        C  0.24090060  0.93461046  0.92981557    -0.11000
C937        C  0.23678074  0.90472112  0.94216920    -0.01000
C938        C  0.23414123  0.88077452  0.91690044    -0.06200
H939        H  0.24131572  0.92111022  0.83632551     0.06300
H940        H  0.23646983  0.89987672  0.97173136     0.09700
Br941      Br  0.18396355  0.88533818  0.81497647    -0.05900
Br942      Br  0.29238993  0.78309454  0.84208508    -0.02800
Br943      Br  0.24704267  0.98081645  0.87205074     0.00000
Br944      Br  0.22762216  0.84088487  0.93683269    -0.04300
C945        C  0.19466161  0.76422719  0.79752402    -0.11700
C946        C  0.16599472  0.77223598  0.78326570     0.03700
C947        C  0.14044830  0.77104355  0.80636879    -0.12300
C948        C  0.14294033  0.76136217  0.84355303     0.18600
C949        C  0.17165764  0.75286984  0.85751113    -0.09300
C950        C  0.19726117  0.75489739  0.83470316    -0.02300
H951        H  0.11844075  0.77699372  0.79506488     0.05100
C952        C  0.11511749  0.75732487  0.86617723     0.20600
H953        H  0.21914052  0.74795778  0.84553354     0.10300
C954        C  0.09410006  0.73520145  0.85536873    -0.15600
C955        C  0.06941003  0.72801929  0.87813123     0.03300
C956        C  0.06556779  0.74284181  0.91267437    -0.11000
C957        C  0.08528427  0.76663741  0.92207205    -0.01000
C958        C  0.10981481  0.77406923  0.89901826    -0.06200
H959        H  0.09738409  0.72286708  0.82958418     0.06300
H960        H  0.08244451  0.77858646  0.94820226     0.09700
Br961      Br  0.17674799  0.73543552  0.90615189    -0.05900
Br962      Br  0.16070849  0.78411999  0.73221157    -0.02800
Br963      Br  0.04116330  0.69853177  0.86003679     0.00000
Br964      Br  0.13562030  0.80699041  0.91361164    -0.04300
C965        C  0.25408514  0.30826926  0.69477066    -0.11700
C966        C  0.23127769  0.31668793  0.66908229     0.03700
C967        C  0.23462945  0.34290602  0.64742139    -0.12300
C968        C  0.26031314  0.36140381  0.65091399     0.18600
C969        C  0.28234791  0.35397075  0.67779822    -0.09300
C970        C  0.27914021  0.32762313  0.69939559    -0.02300
H971        H  0.21737327  0.34857887  0.62705518     0.05100
C972        C  0.26410268  0.38727454  0.62476345     0.20600
H973        H  0.29649520  0.32202306  0.71963014     0.10300
C974        C  0.26031052  0.41726121  0.63728617    -0.15600
C975        C  0.25978809  0.44157483  0.61191862     0.03300
C976        C  0.26259270  0.43591050  0.57338443    -0.11000
C977        C  0.26802599  0.40612873  0.56126390    -0.01000
C978        C  0.26914605  0.38201849  0.58654631    -0.06200
H979        H  0.25651640  0.42161323  0.66661352     0.06300
H980        H  0.27024417  0.40143901  0.53175259     0.09700
Br981      Br  0.31771647  0.37846169  0.68481926    -0.05900
Br982      Br  0.19579382  0.29261741  0.66073085    -0.02800
Br983      Br  0.25219258  0.48155129  0.63078618     0.00000
Br984      Br  0.27691900  0.34208367  0.56747051    -0.04300
C985        C  0.30185581  0.26048575  0.68804584    -0.11700
C986        C  0.29936735  0.25607285  0.64924746     0.03700
C987        C  0.32524405  0.25784557  0.62672578    -0.12300
C988        C  0.35380515  0.26346571  0.64247942     0.18600
C989        C  0.35614715  0.26844520  0.68114578    -0.09300
C990        C  0.33030217  0.26689742  0.70356931    -0.02300
H991        H  0.32332520  0.25336850  0.59711178     0.05100
C992        C  0.38126900  0.26008781  0.61921288     0.20600
H993        H  0.33245406  0.27017461  0.73340170     0.10300
C994        C  0.38944607  0.28268564  0.59355622    -0.15600
C995        C  0.41490948  0.27904061  0.57039635     0.03300
C996        C  0.43281274  0.25243361  0.57320597    -0.11000
C997        C  0.42468447  0.23038606  0.59977679    -0.01000
C998        C  0.39902785  0.23371095  0.62195454    -0.06200
H999        H  0.37559299  0.30290305  0.59100348     0.06300
H1000       H  0.43768403  0.20958915  0.60237544     0.09700
Br1001     Br  0.39444428  0.27610931  0.70463873    -0.05900
Br1002     Br  0.26175188  0.24489121  0.62635676    -0.02800
Br1003     Br  0.42229021  0.31000598  0.53392233     0.00000
Br1004     Br  0.38793450  0.20042409  0.65365715    -0.04300
C1005       C  0.08190968  0.24457348  0.92303208    -0.11700
C1006       C  0.08221427  0.22053082  0.89698553     0.03700
C1007       C  0.10552903  0.21885830  0.87023764    -0.12300
C1008       C  0.12807220  0.24132893  0.86829377     0.18600
C1009       C  0.12594903  0.26667198  0.89190219    -0.09300
C1010       C  0.10363157  0.26775794  0.91921898    -0.02300
H1011       H  0.10625816  0.19983930  0.85117279     0.05100
C1012       C  0.15342783  0.23885757  0.84131804     0.20600
H1013       H  0.10305550  0.28742680  0.93729563     0.10300
C1014       C  0.14735640  0.23907448  0.80292865    -0.15600
C1015       C  0.17102781  0.24093587  0.77702529     0.03300
C1016       C  0.20118608  0.24394844  0.78943639    -0.11000
C1017       C  0.20731919  0.24206342  0.82776709    -0.01000
C1018       C  0.18384304  0.23852167  0.85351846    -0.06200
H1019       H  0.12417928  0.23818741  0.79312139     0.06300
H1020       H  0.23047444  0.24304616  0.83764803     0.09700
Br1021     Br  0.15202444  0.30133575  0.88693698    -0.05900
Br1022     Br  0.05200016  0.18938613  0.89659495    -0.02800
Br1023     Br  0.16132342  0.23729893  0.72515581     0.00000
Br1024     Br  0.19445830  0.23234519  0.90490874    -0.04300
C1025       C  0.24629234  0.07468469  0.91171186    -0.11700
C1026       C  0.22426114  0.09786147  0.91447632     0.03700
C1027       C  0.22230057  0.12017087  0.88653226    -0.12300
C1028       C  0.24202152  0.11975514  0.85577514     0.18600
C1029       C  0.26247227  0.09546453  0.85184074    -0.09300
C1030       C  0.26437963  0.07325036  0.87950346    -0.02300
H1031       H  0.20651470  0.13887031  0.88986869     0.05100
C1032       C  0.24373485  0.14637387  0.83052568     0.20600
H1033       H  0.28135673  0.05553678  0.87676279     0.10300
C1034       C  0.26855137  0.16607262  0.83378301    -0.15600
C1035       C  0.27133038  0.19150000  0.81064057     0.03300
C1036       C  0.24916746  0.19745600  0.78321092    -0.11000
C1037       C  0.22452562  0.17746469  0.77967618    -0.01000
C1038       C  0.22150641  0.15233239  0.80333304    -0.06200
H1039       H  0.28562195  0.16185158  0.85484713     0.06300
H1040       H  0.20725990  0.18180056  0.75892604     0.09700
Br1041     Br  0.28953506  0.09263406  0.81013525    -0.05900
Br1042     Br  0.19896010  0.10232411  0.95758855    -0.02800
Br1043     Br  0.30468497  0.21841344  0.81947344     0.00000
Br1044     Br  0.18672393  0.12683593  0.79755485    -0.04300
C1045       C  0.69877992  0.25688442  0.70517156    -0.11700
C1046       C  0.69345079  0.23666693  0.67545063     0.03700
C1047       C  0.66917481  0.24161682  0.65097888    -0.12300
C1048       C  0.64993572  0.26685021  0.65490610     0.18600
C1049       C  0.65496224  0.28698452  0.68480467    -0.09300
C1050       C  0.67909915  0.28183309  0.70968534    -0.02300
H1051       H  0.66555882  0.22587652  0.62823751     0.05100
C1052       C  0.62495693  0.27116360  0.62729556     0.20600
H1053       H  0.68290594  0.29770028  0.73221481     0.10300
C1054       C  0.59465270  0.26680634  0.63820469    -0.15600
C1055       C  0.57134678  0.26448693  0.61153781     0.03300
C1056       C  0.57817223  0.26681190  0.57325358    -0.11000
C1057       C  0.60810276  0.27323583  0.56265352    -0.01000
C1058       C  0.63133100  0.27542047  0.58912912    -0.06200
H1059       H  0.58939812  0.26313284  0.66738495     0.06300
H1060       H  0.61379280  0.27474459  0.53327188     0.09700
Br1061     Br  0.63050289  0.32256130  0.69155767    -0.05900
Br1062     Br  0.71983720  0.20300593  0.66542393    -0.02800
Br1063     Br  0.53148754  0.25388288  0.62828232     0.00000
Br1064     Br  0.67177000  0.28233923  0.57146306    -0.04300
C1065       C  0.74722922  0.30273602  0.70504336    -0.11700
C1066       C  0.74128142  0.33198003  0.71915054     0.03700
C1067       C  0.73869686  0.35670353  0.69468845    -0.12300
C1068       C  0.74190132  0.35280034  0.65601564     0.18600
C1069       C  0.74797781  0.32352394  0.64199575    -0.09300
C1070       C  0.75032464  0.29882362  0.66640702    -0.02300
H1071       H  0.73461626  0.37914776  0.70589619     0.05100
C1072       C  0.74313382  0.37986139  0.63133521     0.20600
H1073       H  0.75498312  0.27647346  0.65525904     0.10300
C1074       C  0.76869543  0.39840924  0.63349797    -0.15600
C1075       C  0.77328855  0.42178021  0.60788532     0.03300
C1076       C  0.75223611  0.42691759  0.57871053    -0.11000
C1077       C  0.72533050  0.40987549  0.57832236    -0.01000
C1078       C  0.72061882  0.38656235  0.60456360    -0.06200
H1079       H  0.78574968  0.39402189  0.65455758     0.06300
H1080       H  0.70872229  0.41359787  0.55657724     0.09700
Br1081     Br  0.75535234  0.31644520  0.59001957    -0.05900
Br1082     Br  0.73599074  0.33904322  0.77148597    -0.02800
Br1083     Br  0.80913480  0.44570306  0.61449581     0.00000
Br1084     Br  0.68346564  0.36419934  0.60280398    -0.04300
C1085       C  0.76819197  0.06505983  0.91469570    -0.11700
C1086       C  0.76051310  0.06113460  0.87687391     0.03700
C1087       C  0.76218679  0.08581202  0.85213638    -0.12300
C1088       C  0.77138336  0.11459231  0.86464058     0.18600
C1089       C  0.78095378  0.11783223  0.90194517    -0.09300
C1090       C  0.77921649  0.09325456  0.92654025    -0.02300
H1091       H  0.75455702  0.08297530  0.82360516     0.05100
C1092       C  0.76734347  0.14161875  0.84016961     0.20600
H1093       H  0.78467714  0.09671334  0.95571136     0.10300
C1094       C  0.74506675  0.16314362  0.84951827    -0.15600
C1095       C  0.74064099  0.18924235  0.82788385     0.03300
C1096       C  0.75880725  0.19442701  0.79627492    -0.11000
C1097       C  0.78081216  0.17270916  0.78650943    -0.01000
C1098       C  0.78498816  0.14635481  0.80796158    -0.06200
H1099       H  0.73112398  0.15966859  0.87398084     0.06300
H1100       H  0.79486342  0.17636284  0.76220397     0.09700
Br1101     Br  0.79474337  0.15590317  0.92130152    -0.05900
Br1102     Br  0.74430053  0.02349743  0.85902198    -0.02800
Br1103     Br  0.71026201  0.21773275  0.84342611     0.00000
Br1104     Br  0.81551771  0.11791740  0.79283043    -0.04300
C1105       C  0.80662327  0.24150022  0.79753861    -0.11700
C1106       C  0.83563054  0.23714214  0.78192078     0.03700
C1107       C  0.86120550  0.23485706  0.80511302    -0.12300
C1108       C  0.85860712  0.23712200  0.84408434     0.18600
C1109       C  0.82955211  0.24157910  0.85965949    -0.09300
C1110       C  0.80393415  0.24327195  0.83649593    -0.02300
H1111       H  0.88336139  0.23202677  0.79262602     0.05100
C1112       C  0.88665745  0.23902079  0.86728755     0.20600
H1113       H  0.78188812  0.24703994  0.84887050     0.10300
C1114       C  0.90568460  0.26407865  0.86241339    -0.15600
C1115       C  0.93073389  0.26886809  0.88562225     0.03300
C1116       C  0.93756100  0.24814502  0.91464981    -0.11000
C1117       C  0.91960982  0.22196030  0.91796778    -0.01000
C1118       C  0.89440212  0.21729241  0.89464256    -0.06200
H1119       H  0.90043119  0.28065605  0.84101956     0.06300
H1120       H  0.92437756  0.20565405  0.93981557     0.09700
Br1121     Br  0.82389579  0.24851264  0.91200164    -0.05900
Br1122     Br  0.84144944  0.23430110  0.72906052    -0.02800
Br1123     Br  0.95432431  0.30446712  0.87585423     0.00000
Br1124     Br  0.87142356  0.18092100  0.90122359    -0.04300
C1125       C  0.75855087  0.56789670  0.57074635    -0.11700
C1126       C  0.78179712  0.58208452  0.59154812     0.03700
C1127       C  0.77489119  0.60547626  0.61632694    -0.12300
C1128       C  0.74520357  0.61598709  0.62045642     0.18600
C1129       C  0.72180550  0.60213631  0.59993143    -0.09300
C1130       C  0.72850174  0.57791659  0.57571894    -0.02300
H1131       H  0.79303500  0.61613925  0.63195023     0.05100
C1132       C  0.74012567  0.64250725  0.64500279     0.20600
H1133       H  0.71039938  0.56782857  0.55949409     0.10300
C1134       C  0.74757902  0.67144534  0.63165607    -0.15600
C1135       C  0.74814547  0.69651346  0.65558589     0.03300
C1136       C  0.74091747  0.69288208  0.69358701    -0.11000
C1137       C  0.73314701  0.66398972  0.70684843    -0.01000
C1138       C  0.73262574  0.63890703  0.68288090    -0.06200
H1139       H  0.75423334  0.67428343  0.60275386     0.06300
H1140       H  0.72807928  0.66082734  0.73617803     0.09700
Br1141     Br  0.68095060  0.61678946  0.60275577    -0.05900
Br1142     Br  0.82369381  0.57121291  0.58764562    -0.02800
Br1143     Br  0.76156524  0.73456905  0.63575888     0.00000
Br1144     Br  0.72315916  0.59990995  0.70334528    -0.04300
C1145       C  0.69278487  0.74004914  0.69848474    -0.11700
C1146       C  0.66797811  0.72132500  0.70738741     0.03700
C1147       C  0.64183449  0.72198270  0.68515264    -0.12300
C1148       C  0.64010652  0.74112068  0.65400184     0.18600
C1149       C  0.66496810  0.75967599  0.64502392    -0.09300
C1150       C  0.69086907  0.75928309  0.66745736    -0.02300
H1151       H  0.62257882  0.70796461  0.69256538     0.05100
C1152       C  0.61168098  0.74335128  0.63236024     0.20600
H1153       H  0.70958631  0.77424228  0.66079161     0.10300
C1154       C  0.59102997  0.76638521  0.64129659    -0.15600
C1155       C  0.56667700  0.77301107  0.61767856     0.03300
C1156       C  0.56251080  0.75621582  0.58455182    -0.11000
C1157       C  0.58189474  0.73157923  0.57720542    -0.01000
C1158       C  0.60654925  0.72527575  0.60067757    -0.06200
H1159       H  0.59474242  0.78022210  0.66578510     0.06300
H1160       H  0.57924937  0.71864703  0.55177226     0.09700
Br1161     Br  0.66426828  0.78616596  0.60257050    -0.05900
Br1162     Br  0.66813390  0.69604486  0.75086748    -0.02800
Br1163     Br  0.54047795  0.80587413  0.63160636     0.00000
Br1164     Br  0.63419458  0.69361988  0.58684873    -0.04300
C1165       C  0.80014846  0.74715990  0.79174928    -0.11700
C1166       C  0.82957508  0.74776558  0.77631544     0.03700
C1167       C  0.85496794  0.74966761  0.79973928    -0.12300
C1168       C  0.85165580  0.75148329  0.83860462     0.18600
C1169       C  0.82228780  0.75222290  0.85391294    -0.09300
C1170       C  0.79696464  0.74947847  0.83065259    -0.02300
H1171       H  0.87743122  0.74920748  0.78766243     0.05100
C1172       C  0.87874738  0.74880553  0.86297580     0.20600
H1173       H  0.77463188  0.74908443  0.84304430     0.10300
C1174       C  0.88825808  0.77336916  0.88509676    -0.15600
C1175       C  0.91145194  0.76973757  0.91168967     0.03300
C1176       C  0.92551221  0.74123248  0.91618298    -0.11000
C1177       C  0.91675751  0.71719303  0.89290546    -0.01000
C1178       C  0.89369889  0.72072739  0.86659174    -0.06200
H1179       H  0.87675774  0.79503976  0.88272244     0.06300
H1180       H  0.92718812  0.69505524  0.89623552     0.09700
Br1181     Br  0.81558121  0.75588655  0.90656293    -0.05900
Br1182     Br  0.83641514  0.74695039  0.72348949    -0.02800
Br1183     Br  0.92086931  0.80323499  0.94358988     0.00000
Br1184     Br  0.88164746  0.68565244  0.83857390    -0.04300
C1185       C  0.76120301  0.92196104  0.91492798    -0.11700
C1186       C  0.77813802  0.89590609  0.92444649     0.03700
C1187       C  0.77918641  0.87117209  0.89980787    -0.12300
C1188       C  0.76333343  0.87202523  0.86587064     0.18600
C1189       C  0.74755343  0.89848954  0.85574623    -0.09300
C1190       C  0.74674300  0.92317927  0.88006082    -0.02300
H1191       H  0.79116110  0.85070508  0.90789278     0.05100
C1192       C  0.76118792  0.84456333  0.84245678     0.20600
H1193       H  0.73304693  0.94275803  0.87274460     0.10300
C1194       C  0.73735281  0.82417104  0.84859818    -0.15600
C1195       C  0.73296378  0.79932721  0.82493321     0.03300
C1196       C  0.75264966  0.79467885  0.79451007    -0.11000
C1197       C  0.77659583  0.81503013  0.78860370    -0.01000
C1198       C  0.78101265  0.83976079  0.81237764    -0.06200
H1199       H  0.72191967  0.82781704  0.87169410     0.06300
H1200       H  0.79199943  0.81154282  0.76543723     0.09700
Br1201     Br  0.72455287  0.90085272  0.81039994    -0.05900
Br1202     Br  0.79673824  0.89141970  0.97245466    -0.02800
Br1203     Br  0.70062171  0.77175305  0.83612493     0.00000
Br1204     Br  0.81414571  0.86661825  0.80268798    -0.04300
loop_ 
_geom_bond_atom_site_label_1 
_geom_bond_atom_site_label_2 
_geom_bond_distance 
_geom_bond_site_symmetry_2 
_ccdc_geom_bond_type 
C1            C2   1.416       .  A
C1            C6   1.404       .  A
C1         C1196   1.484       .  S
C2            C3   1.408       .  A
C2         C1165   1.494       .  S
C3            C4   1.406       .  A
C3            H8   1.084       .  S
C4            C5   1.412       .  A
C4         C1136   1.484       .  S
C5            C6   1.403       .  A
C5         C1145   1.482       .  S
C6            H7   1.084       .  S
C9           C10   1.416       .  A
C9           C14   1.410       .  A
C9         C1105   1.495       .  S
C10          C11   1.411       .  A
C10        C1096   1.491       .  S
C11          C12   1.410       .  A
C11          H16   1.082       .  S
C12          C13   1.415       .  A
C12        C1045   1.498       .  S
C13          C14   1.410       .  A
C13        C1065   1.489       .  S
C14          H15   1.082       .  S
C17          C18   1.414       .  A
C17          C22   1.404       .  A
C17        C1036   1.492       .  S
C18          C19   1.409       .  A
C18        C1016   1.487       .  S
C19          C20   1.408       .  A
C19          H24   1.083       .  S
C20          C21   1.417       .  A
C20         C965   1.496       .  S
C21          C22   1.407       .  A
C21         C985   1.483       .  S
C22          H23   1.083       .  S
C25          C26   1.412       .  A
C25          C30   1.407       .  A
C25         C925   1.483       .  S
C26          C27   1.402       .  A
C26         C945   1.479       .  S
C27          C28   1.402       .  A
C27          H32   1.083       .  S
C28          C29   1.414       .  A
C28         C916   1.482       .  S
C29          C30   1.404       .  A
C29         C885   1.484       .  S
C30          H31   1.083       .  S
C33          C34   1.416       .  A
C33          C38   1.403       .  A
C33         C865   1.482       .  S
C34          C35   1.408       .  A
C34         C845   1.489       .  S
C35          C36   1.407       .  A
C35          H40   1.084       .  S
C36          C37   1.412       .  A
C36         C805   1.485       .  S
C37          C38   1.401       .  A
C37         C825   1.481       .  S
C38          H39   1.084       .  S
C41          C42   1.413       .  A
C41          C46   1.408       .  A
C41         C776   1.484       .  S
C42          C43   1.407       .  A
C42         C796   1.489       .  S
C43          C44   1.406       .  A
C43          H48   1.082       .  S
C44          C45   1.412       .  A
C44         C756   1.486       .  S
C45          C46   1.408       .  A
C45         C725   1.487       .  S
C46          H47   1.082       .  S
C49          C50   1.414       .  A
C49          C54   1.408       .  A
C49         C716   1.488       .  S
C50          C51   1.404       .  A
C50         C685   1.482       .  S
C51          C52   1.404       .  A
C51          H56   1.085       .  S
C52          C53   1.415       .  A
C52         C645   1.484       .  S
C53          C54   1.406       .  A
C53         C665   1.486       .  S
C54          H55   1.085       .  S
O57          C72   1.269       .  A
O57         Al65   1.947       .  S
C58         C625   1.474       .  S
C58          O68   1.262       .  A
C58          O59   1.255       .  A
O59         Al61   1.894       .  S
O60          C62   1.262       .  A
O60         Al61   1.892       .  S
Al61         O69   1.892       .  S
Al61         O71   1.892       .  S
Al61         O70   1.770       .  S
C62         C836   1.482       .  S
C62          O75   1.273       .  A
O63          C73   1.268       .  A
O63         Al65   1.929       .  S
O64          C77   1.259       .  A
O64         Al74   1.883       .  S
Al65         O78   1.940       .  S
Al65         O75   1.956       .  S
Al65         O70   1.776       .  S
O66          C73   1.261       .  A
O66         Al74   1.905       .  S
O67          C76   1.266       .  A
O67         Al74   1.924       .  S
O68         Al74   1.910       .  S
O69          C76   1.260       .  A
O70         Al74   1.775       .  S
O71          C72   1.254       .  A
C72         C896   1.490       .  S
C73         C736   1.477       .  S
C76         C605   1.468       .  S
C77        C1156   1.479       .  S
C77          O78   1.268       .  A
O79          C94   1.264       .  A
O79         Al87   1.921   1_554  S
C80         C585   1.488       .  S
C80          O90   1.260   1_565  A
C80          O81   1.266       .  A
O81         Al83   1.934       .  S
O82          C84   1.256       .  A
O82         Al83   1.861       .  S
Al83         O91   1.891   1_556  S
Al83         O93   1.902   1_556  S
Al83         O92   1.773       .  S
C84        C1185   1.474       .  S
C84          O97   1.271       .  A
O85          C95   1.264       .  A
O85         Al87   1.930   1_545  S
O86          C99   1.259       .  A
O86         Al96   1.862   1_554  S
Al87        O100   1.968   1_566  S
Al87         O97   1.960       .  S
Al87         O92   1.785       .  S
O88          C95   1.258       .  A
O88         Al96   1.900       .  S
O89          C98   1.263   1_545  A
O89         Al96   1.925   1_554  S
O90         Al96   1.887       .  S
O91          C98   1.257       .  A
O92         Al96   1.773   1_565  S
O93          C94   1.261       .  A
C94         C765   1.481       .  S
C95        C1085   1.475       .  S
C98         C576   1.477       .  S
C99         C705   1.488       .  S
C99         O100   1.274       .  A
O101        C116   1.264       .  A
O101       Al109   1.918   1_566  S
C102        C516   1.476       .  S
C102        O112   1.259       .  A
C102        O103   1.262   1_545  A
O103       Al105   1.917       .  S
O104        C106   1.258       .  A
O104       Al105   1.869       .  S
Al105       O113   1.887   1_554  S
Al105       O115   1.905   1_554  S
Al105       O114   1.772   1_565  S
C106        C876   1.481       .  S
C106        O119   1.273       .  A
O107        C117   1.263       .  A
O107       Al109   1.915       .  S
O108        C121   1.257       .  A
O108       Al118   1.868       .  S
Al109       O122   1.962   1_554  S
Al109       O119   1.959   1_545  S
Al109       O114   1.777       .  S
O110        C117   1.261       .  A
O110       Al118   1.904   1_554  S
O111        C120   1.266       .  A
O111       Al118   1.916       .  S
O112       Al118   1.893   1_554  S
O113        C120   1.257   1_565  A
O114       Al118   1.770   1_554  S
O115        C116   1.260       .  A
C116        C936   1.474       .  S
C117        C545   1.471       .  S
C120        C525   1.483       .  S
C121       C1025   1.483       .  S
C121        O122   1.271       .  A
O123        C138   1.265       .  A
O123       Al131   1.936       .  S
C124        C465   1.462       .  S
C124        O134   1.254       .  A
C124        O125   1.262       .  A
O125       Al127   1.931       .  S
O126        C128   1.262       .  A
O126       Al127   1.872       .  S
Al127       O135   1.896       .  S
Al127       O137   1.899       .  S
Al127       O136   1.780       .  S
C128        C676   1.489       .  S
C128        O141   1.273       .  A
O129        C139   1.265       .  A
O129       Al131   1.931       .  S
O130        C143   1.257       .  A
O130       Al140   1.859       .  S
Al131       O144   1.954       .  S
Al131       O141   1.959       .  S
Al131       O136   1.782       .  S
O132        C139   1.259       .  A
O132       Al140   1.892       .  S
O133        C142   1.265       .  A
O133       Al140   1.918       .  S
O134       Al140   1.877       .  S
O135        C142   1.259       .  A
O136       Al140   1.773       .  S
O137        C138   1.257       .  A
C138       C1056   1.482       .  S
C139        C496   1.488       .  S
C142        C445   1.486       .  S
C143        C996   1.487       .  S
C143        O144   1.270       .  A
C145        C476   1.572       .  S
C145        C505   1.568       .  S
C145        C565   1.573       .  S
C145        C636   1.569   1_545  S
C146        C456   1.576       .  S
C146        C536   1.559       .  S
C146        C596   1.569       .  S
C146        C616   1.570   1_545  S
O147        C162   1.263       .  A
O147       Al155   1.920       .  S
C148        C425   1.464       .  S
C148        O158   1.259       .  A
C148        O149   1.264       .  A
O149       Al151   1.923       .  S
O150        C152   1.259       .  A
O150       Al151   1.875       .  S
Al151       O159   1.884       .  S
Al151       O161   1.906       .  S
Al151       O160   1.774       .  S
C152        C745   1.491       .  S
C152        O165   1.272       .  A
O153        C163   1.259       .  A
O153       Al155   1.919       .  S
O154        C167   1.257       .  A
O154       Al164   1.861       .  S
Al155       O168   1.977       .  S
Al155       O165   1.952       .  S
Al155       O160   1.783       .  S
O156        C163   1.256       .  A
O156       Al164   1.896       .  S
O157        C166   1.260       .  A
O157       Al164   1.920       .  S
O158       Al164   1.892       .  S
O159        C166   1.259       .  A
O160       Al164   1.782       .  S
O161        C162   1.259       .  A
C162       C1125   1.487       .  S
C163        C656   1.473       .  S
C166        C416   1.473       .  S
C167       C1076   1.488       .  S
C167        O168   1.276       .  A
O169        C184   1.267       .  A
O169       Al177   1.935   1_454  S
C170        C396   1.473       .  S
C170        O180   1.257       .  A
C170        O171   1.256   1_655  A
O171       Al173   1.894       .  S
O172        C174   1.260       .  A
O172       Al173   1.888       .  S
Al173       O181   1.874   1_556  S
Al173       O183   1.901   1_556  S
Al173       O182   1.784   1_455  S
C174        C956   1.481       .  S
C174        O187   1.268       .  A
O175        C185   1.266       .  A
O175       Al177   1.926       .  S
O176        C189   1.257       .  A
O176       Al186   1.881   1_554  S
Al177       O190   1.938   1_556  S
Al177       O187   1.941   1_655  S
Al177       O182   1.795       .  S
O178        C185   1.260       .  A
O178       Al186   1.892       .  S
O179        C188   1.259   1_655  A
O179       Al186   1.906   1_554  S
O180       Al186   1.899       .  S
O181        C188   1.255       .  A
O182       Al186   1.790       .  S
O183        C184   1.258       .  A
C184        C856   1.488       .  S
C185       C1176   1.480       .  S
C188        C376   1.455       .  S
C189        C785   1.493       .  S
C189        O190   1.264       .  A
O191        C206   1.265       .  A
O191       Al199   1.922   1_654  S
C192        C325   1.462       .  S
C192        O202   1.261       .  A
C192        O193   1.266   1_455  A
O193       Al195   1.922       .  S
O194        C196   1.258       .  A
O194       Al195   1.880       .  S
Al195       O203   1.892   1_556  S
Al195       O205   1.891   1_556  S
Al195       O204   1.769   1_656  S
C196       C1116   1.492       .  S
C196        O209   1.272       .  A
O197        C207   1.266       .  A
O197       Al199   1.941       .  S
O198        C211   1.260       .  A
O198       Al208   1.868       .  S
Al199       O212   1.978   1_556  S
Al199       O209   1.958   1_455  S
Al199       O204   1.777   1_556  S
O200        C207   1.257       .  A
O200       Al208   1.891   1_556  S
O201        C210   1.259       .  A
O201       Al208   1.903       .  S
O202       Al208   1.890   1_556  S
O203        C210   1.256   1_655  A
O204       Al208   1.774       .  S
O205        C206   1.259       .  A
C206        C696   1.469       .  S
C207       C1005   1.491       .  S
C210        C316   1.472       .  S
C211        C345   1.481       .  S
C211        O212   1.277       .  A
O213        C228   1.264       .  A
O213       Al221   1.925       .  S
C214        C276   1.470       .  S
C214        O224   1.258       .  A
C214        O215   1.262       .  A
O215       Al217   1.909       .  S
O216        C218   1.258       .  A
O216       Al217   1.866       .  S
Al217       O225   1.879       .  S
Al217       O227   1.906       .  S
Al217       O226   1.769       .  S
C218        C285   1.483       .  S
C218        O231   1.273       .  A
O219        C229   1.263       .  A
O219       Al221   1.914       .  S
O220        C233   1.257       .  A
O220       Al230   1.863       .  S
Al221       O234   1.955       .  S
Al221       O231   1.963       .  S
Al221       O226   1.774       .  S
O222        C229   1.260       .  A
O222       Al230   1.907       .  S
O223        C232   1.265       .  A
O223       Al230   1.921       .  S
O224       Al230   1.891       .  S
O225        C232   1.259       .  A
O226       Al230   1.773       .  S
O227        C228   1.260       .  A
C228        C976   1.478       .  S
C229        C816   1.472       .  S
C232        C256   1.469       .  S
C233        C905   1.477       .  S
C233        O234   1.271       .  A
C235        C265   1.571       .  S
C235        C305   1.570       .  S
C235        C365   1.564       .  S
C235        C436   1.568   1_455  S
C236        C245   1.569       .  S
C236        C336   1.576       .  S
C236        C385   1.573   1_455  S
C236        C405   1.556   1_455  S
C237        C238   1.414       .  A
C237        C242   1.407       .  A
C237        C356   1.489       .  S
C238        C239   1.405       .  A
C238        C556   1.486       .  S
C239        C240   1.405       .  A
C239        H244   1.082       .  S
C240        C241   1.416       .  A
C240        C485   1.489       .  S
C241        C242   1.411       .  A
C241        C296   1.490       .  S
C242        H243   1.082       .  S
C245        C246   1.436       .  A
C245        C250   1.419       .  A
C246        C247   1.392       .  A
C246       Br262   1.926       .  S
C247        C248   1.390       .  A
C247        H251   1.084       .  S
C248        C249   1.398       .  A
C248        C252   1.465       .  S
C249        C250   1.396       .  A
C249       Br261   1.918       .  S
C250        H253   1.078       .  S
C252        C254   1.399       .  A
C252        C258   1.404       .  A
C254        C255   1.393       .  A
C254        H259   1.082       .  S
C255        C256   1.411       .  A
C255       Br263   1.922       .  S
C256        C257   1.407       .  A
C257        C258   1.396       .  A
C257        H260   1.083       .  S
C258       Br264   1.918       .  S
C265        C266   1.434       .  A
C265        C270   1.422       .  A
C266        C267   1.401       .  A
C266       Br282   1.922       .  S
C267        C268   1.395       .  A
C267        H271   1.083       .  S
C268        C269   1.394       .  A
C268        C272   1.465       .  S
C269        C270   1.386       .  A
C269       Br281   1.922       .  S
C270        H273   1.075       .  S
C272        C274   1.402       .  A
C272        C278   1.402       .  A
C274        C275   1.399       .  A
C274        H279   1.084       .  S
C275        C276   1.412       .  A
C275       Br283   1.920       .  S
C276        C277   1.405       .  A
C277        C278   1.390       .  A
C277        H280   1.084       .  S
C278       Br284   1.919       .  S
C285        C286   1.413       .  A
C285        C290   1.408       .  A
C286        C287   1.405       .  A
C286       Br302   1.919       .  S
C287        C288   1.405       .  A
C287        H291   1.083       .  S
C288        C289   1.406       .  A
C288        C292   1.483       .  S
C289        C290   1.396       .  A
C289       Br301   1.920       .  S
C290        H293   1.084       .  S
C292        C294   1.404       .  A
C292        C298   1.407       .  A
C294        C295   1.400       .  A
C294        H299   1.084       .  S
C295        C296   1.410       .  A
C295       Br303   1.918       .  S
C296        C297   1.407       .  A
C297        C298   1.403       .  A
C297        H300   1.083       .  S
C298       Br304   1.917       .  S
C305        C306   1.433       .  A
C305        C310   1.422       .  A
C306        C307   1.402       .  A
C306       Br322   1.923       .  S
C307        C308   1.395       .  A
C307        H311   1.084       .  S
C308        C309   1.394       .  A
C308        C312   1.464       .  S
C309        C310   1.386       .  A
C309       Br321   1.923       .  S
C310        H313   1.079       .  S
C312        C314   1.401   1_455  A
C312        C318   1.401       .  A
C314        C315   1.396       .  A
C314        H319   1.085       .  S
C315        C316   1.412   1_655  A
C315       Br323   1.921       .  S
C316        C317   1.408       .  A
C317        C318   1.392       .  A
C317        H320   1.085       .  S
C318       Br324   1.918       .  S
C325        C326   1.408       .  A
C325        C330   1.401       .  A
C326        C327   1.395       .  A
C326       Br342   1.920       .  S
C327        C328   1.402       .  A
C327        H331   1.083       .  S
C328        C329   1.409       .  A
C328        C332   1.473       .  S
C329        C330   1.395       .  A
C329       Br341   1.921       .  S
C330        H333   1.084       .  S
C332        C334   1.396   1_455  A
C332        C338   1.396       .  A
C334        C335   1.398       .  A
C334        H339   1.085       .  S
C335        C336   1.431   1_655  A
C335       Br343   1.918       .  S
C336        C337   1.427       .  A
C337        C338   1.389       .  A
C337        H340   1.079       .  S
C338       Br344   1.923       .  S
C345        C346   1.413       .  A
C345        C350   1.403       .  A
C346        C347   1.400       .  A
C346       Br362   1.920       .  S
C347        C348   1.401       .  A
C347        H351   1.083       .  S
C348        C349   1.412       .  A
C348        C352   1.489       .  S
C349        C350   1.406       .  A
C349       Br361   1.916       .  S
C350        H353   1.083       .  S
C352        C354   1.405       .  A
C352        C358   1.412       .  A
C354        C355   1.405       .  A
C354        H359   1.083       .  S
C355        C356   1.411       .  A
C355       Br363   1.918       .  S
C356        C357   1.401       .  A
C357        C358   1.401       .  A
C357        H360   1.083       .  S
C358       Br364   1.920       .  S
C365        C366   1.433   1_455  A
C365        C370   1.420       .  A
C366        C367   1.391       .  A
C366       Br382   1.926       .  S
C367        C368   1.393   1_655  A
C367        H371   1.084       .  S
C368        C369   1.400       .  A
C368        C372   1.471       .  S
C369        C370   1.396       .  A
C369       Br381   1.919       .  S
C370        H373   1.077       .  S
C372        C374   1.402       .  A
C372        C378   1.411       .  A
C374        C375   1.397   1_455  A
C374        H379   1.084   1_455  S
C375        C376   1.407   1_655  A
C375       Br383   1.918       .  S
C376        C377   1.395       .  A
C377        C378   1.393       .  A
C377        H380   1.085       .  S
C378       Br384   1.921       .  S
C385        C386   1.443       .  A
C385        C390   1.421   1_655  A
C386        C387   1.401       .  A
C386       Br402   1.929       .  S
C387        C388   1.393       .  A
C387        H391   1.084       .  S
C388        C389   1.399   1_655  A
C388        C392   1.477       .  S
C389        C390   1.391       .  A
C389       Br401   1.920       .  S
C390        H393   1.081       .  S
C392        C394   1.405       .  A
C392        C398   1.406   1_655  A
C394        C395   1.401       .  A
C394        H399   1.083       .  S
C395        C396   1.410       .  A
C395       Br403   1.919       .  S
C396        C397   1.403   1_655  A
C397        C398   1.393       .  A
C397        H400   1.082       .  S
C398       Br404   1.921       .  S
C405        C406   1.436       .  A
C405        C410   1.417       .  A
C406        C407   1.394       .  A
C406       Br422   1.927   1_655  S
C407        C408   1.391       .  A
C407        H411   1.084       .  S
C408        C409   1.398       .  A
C408        C412   1.467       .  S
C409        C410   1.396       .  A
C409       Br421   1.918       .  S
C410        H413   1.078       .  S
C412        C414   1.400       .  A
C412        C418   1.403       .  A
C414        C415   1.399       .  A
C414        H419   1.086       .  S
C415        C416   1.413       .  A
C415       Br423   1.920       .  S
C416        C417   1.401       .  A
C417        C418   1.389       .  A
C417        H420   1.087       .  S
C418       Br424   1.918       .  S
C425        C426   1.407       .  A
C425        C430   1.400       .  A
C426        C427   1.396       .  A
C426       Br442   1.911       .  S
C427        C428   1.400       .  A
C427        H431   1.084       .  S
C428        C429   1.409       .  A
C428        C432   1.471       .  S
C429        C430   1.393       .  A
C429       Br441   1.920       .  S
C430        H433   1.085       .  S
C432        C434   1.393       .  A
C432        C438   1.400       .  A
C434        C435   1.391       .  A
C434        H439   1.084       .  S
C435        C436   1.433       .  A
C435       Br443   1.925       .  S
C436        C437   1.420       .  A
C437        C438   1.396       .  A
C437        H440   1.076       .  S
C438       Br444   1.919       .  S
C445        C446   1.418       .  A
C445        C450   1.409       .  A
C446        C447   1.400       .  A
C446       Br462   1.921       .  S
C447        C448   1.399       .  A
C447        H451   1.085       .  S
C448        C449   1.404       .  A
C448        C452   1.472       .  S
C449        C450   1.394       .  A
C449       Br461   1.918       .  S
C450        H453   1.085       .  S
C452        C454   1.396       .  A
C452        C458   1.396       .  A
C454        C455   1.406       .  A
C454        H459   1.089       .  S
C455        C456   1.431       .  A
C455       Br463   1.910       .  S
C456        C457   1.423       .  A
C457        C458   1.388       .  A
C457        H460   1.083       .  S
C458       Br464   1.922       .  S
C465        C466   1.406       .  A
C465        C470   1.400       .  A
C466        C467   1.394       .  A
C466       Br482   1.920       .  S
C467        C468   1.403       .  A
C467        H471   1.084       .  S
C468        C469   1.413       .  A
C468        C472   1.479       .  S
C469        C470   1.400       .  A
C469       Br481   1.921       .  S
C470        H473   1.084       .  S
C472        C474   1.396       .  A
C472        C478   1.402       .  A
C474        C475   1.398       .  A
C474        H479   1.083       .  S
C475        C476   1.434       .  A
C475       Br483   1.926       .  S
C476        C477   1.420       .  A
C477        C478   1.394       .  A
C477        H480   1.077       .  S
C478       Br484   1.923       .  S
C485        C486   1.410       .  A
C485        C490   1.403       .  A
C486        C487   1.404       .  A
C486       Br502   1.917       .  S
C487        C488   1.403       .  A
C487        H491   1.082       .  S
C488        C489   1.411       .  A
C488        C492   1.487       .  S
C489        C490   1.401       .  A
C489       Br501   1.919       .  S
C490        H493   1.083       .  S
C492        C494   1.406       .  A
C492        C498   1.407       .  A
C494        C495   1.408       .  A
C494        H499   1.085       .  S
C495        C496   1.412       .  A
C495       Br503   1.917       .  S
C496        C497   1.408       .  A
C497        C498   1.398       .  A
C497        H500   1.085       .  S
C498       Br504   1.920       .  S
C505        C506   1.433       .  A
C505        C510   1.420   1_545  A
C506        C507   1.397       .  A
C506       Br522   1.924       .  S
C507        C508   1.393       .  A
C507        H511   1.084       .  S
C508        C509   1.399   1_545  A
C508        C512   1.471       .  S
C509        C510   1.396       .  A
C509       Br521   1.919       .  S
C510        H513   1.079       .  S
C512        C514   1.399   1_545  A
C512        C518   1.405       .  A
C514        C515   1.394       .  A
C514        H519   1.086       .  S
C515        C516   1.413   1_565  A
C515       Br523   1.922       .  S
C516        C517   1.407       .  A
C517        C518   1.399       .  A
C517        H520   1.085       .  S
C518       Br524   1.917       .  S
C525        C526   1.419   1_545  A
C525        C530   1.405       .  A
C526        C527   1.400       .  A
C526       Br542   1.923       .  S
C527        C528   1.402   1_565  A
C527        H531   1.084       .  S
C528        C529   1.408       .  A
C528        C532   1.479   1_545  S
C529        C530   1.391       .  A
C529       Br541   1.922       .  S
C530        H533   1.084       .  S
C532        C534   1.398   1_565  A
C532        C538   1.403       .  A
C534        C535   1.400       .  A
C534        H539   1.084       .  S
C535        C536   1.432       .  A
C535       Br543   1.923       .  S
C536        C537   1.420   1_545  A
C537        C538   1.394       .  A
C537        H540   1.081       .  S
C538       Br544   1.921       .  S
C545        C546   1.408       .  A
C545        C550   1.401       .  A
C546        C547   1.403       .  A
C546       Br562   1.918       .  S
C547        C548   1.407       .  A
C547        H551   1.083       .  S
C548        C549   1.410       .  A
C548        C552   1.485       .  S
C549        C550   1.396       .  A
C549       Br561   1.920       .  S
C550        H553   1.083       .  S
C552        C554   1.405       .  A
C552        C558   1.409       .  A
C554        C555   1.398       .  A
C554        H559   1.084       .  S
C555        C556   1.409       .  A
C555       Br563   1.918       .  S
C556        C557   1.404       .  A
C557        C558   1.400       .  A
C557        H560   1.081       .  S
C558       Br564   1.918       .  S
C565        C566   1.435   1_545  A
C565        C570   1.421       .  A
C566        C567   1.397       .  A
C566       Br582   1.924       .  S
C567        C568   1.392   1_565  A
C567        H571   1.085       .  S
C568        C569   1.399       .  A
C568        C572   1.476       .  S
C569        C570   1.398       .  A
C569       Br581   1.919       .  S
C570        H573   1.078       .  S
C572        C574   1.401       .  A
C572        C578   1.406   1_545  A
C574        C575   1.399       .  A
C574        H579   1.083       .  S
C575        C576   1.411   1_545  A
C575       Br583   1.920       .  S
C576        C577   1.406       .  A
C577        C578   1.400       .  A
C577        H580   1.083       .  S
C578       Br584   1.919       .  S
C585        C586   1.417       .  A
C585        C590   1.409   1_565  A
C586        C587   1.400       .  A
C586       Br602   1.921       .  S
C587        C588   1.400   1_565  A
C587        H591   1.086       .  S
C588        C589   1.404       .  A
C588        C592   1.476       .  S
C589        C590   1.398       .  A
C589       Br601   1.918       .  S
C590        H593   1.085       .  S
C592        C594   1.390       .  A
C592        C598   1.398       .  A
C594        C595   1.396       .  A
C594        H599   1.083       .  S
C595        C596   1.442       .  A
C595       Br603   1.931       .  S
C596        C597   1.425       .  A
C597        C598   1.402       .  A
C597        H600   1.078       .  S
C598       Br604   1.916   1_545  S
C605        C606   1.411       .  A
C605        C610   1.403       .  A
C606        C607   1.396       .  A
C606       Br622   1.918       .  S
C607        C608   1.399       .  A
C607        H611   1.083       .  S
C608        C609   1.406       .  A
C608        C612   1.468       .  S
C609        C610   1.395       .  A
C609       Br621   1.919       .  S
C610        H613   1.083       .  S
C612        C614   1.398       .  A
C612        C618   1.396       .  A
C614        C615   1.402       .  A
C614        H619   1.083       .  S
C615        C616   1.430       .  A
C615       Br623   1.925       .  S
C616        C617   1.421       .  A
C617        C618   1.389       .  A
C617        H620   1.076       .  S
C618       Br624   1.920       .  S
C625        C626   1.417       .  A
C625        C630   1.405       .  A
C626        C627   1.388       .  A
C626       Br642   1.925       .  S
C627        C628   1.398       .  A
C627        H631   1.083       .  S
C628        C629   1.411       .  A
C628        C632   1.477       .  S
C629        C630   1.401       .  A
C629       Br641   1.920       .  S
C630        H633   1.083       .  S
C632        C634   1.395       .  A
C632        C638   1.401       .  A
C634        C635   1.390       .  A
C634        H639   1.085       .  S
C635        C636   1.433       .  A
C635       Br643   1.926   1_565  S
C636        C637   1.422       .  A
C637        C638   1.398       .  A
C637        H640   1.076       .  S
C638       Br644   1.920       .  S
C645        C646   1.410       .  A
C645        C650   1.401       .  A
C646        C647   1.402       .  A
C646       Br662   1.917       .  S
C647        C648   1.404       .  A
C647        H651   1.085       .  S
C648        C649   1.412       .  A
C648        C652   1.485       .  S
C649        C650   1.398       .  A
C649       Br661   1.920       .  S
C650        H653   1.085       .  S
C652        C654   1.403       .  A
C652        C658   1.412       .  A
C654        C655   1.397       .  A
C654        H659   1.084       .  S
C655        C656   1.406       .  A
C655       Br663   1.919       .  S
C656        C657   1.403       .  A
C657        C658   1.405       .  A
C657        H660   1.082       .  S
C658       Br664   1.920       .  S
C665        C666   1.409       .  A
C665        C670   1.405       .  A
C666        C667   1.399       .  A
C666       Br682   1.918       .  S
C667        C668   1.402       .  A
C667        H671   1.085       .  S
C668        C669   1.408       .  A
C668        C672   1.481       .  S
C669        C670   1.404       .  A
C669       Br681   1.917       .  S
C670        H673   1.084       .  S
C672        C674   1.405       .  A
C672        C678   1.403       .  A
C674        C675   1.408       .  A
C674        H679   1.084       .  S
C675        C676   1.416       .  A
C675       Br683   1.920       .  S
C676        C677   1.407       .  A
C677        C678   1.394       .  A
C677        H680   1.082       .  S
C678       Br684   1.919       .  S
C685        C686   1.409       .  A
C685        C690   1.402       .  A
C686        C687   1.400       .  A
C686       Br702   1.918       .  S
C687        C688   1.403       .  A
C687        H691   1.082       .  S
C688        C689   1.411       .  A
C688        C692   1.483       .  S
C689        C690   1.401       .  A
C689       Br701   1.919       .  S
C690        H693   1.082       .  S
C692        C694   1.407       .  A
C692        C698   1.408       .  A
C694        C695   1.404       .  A
C694        H699   1.083       .  S
C695        C696   1.406       .  A
C695       Br703   1.917       .  S
C696        C697   1.403       .  A
C697        C698   1.397       .  A
C697        H700   1.084       .  S
C698       Br704   1.919       .  S
C705        C706   1.414       .  A
C705        C710   1.408       .  A
C706        C707   1.407       .  A
C706       Br722   1.918       .  S
C707        C708   1.407       .  A
C707        H711   1.083       .  S
C708        C709   1.406       .  A
C708        C712   1.486       .  S
C709        C710   1.395       .  A
C709       Br721   1.921       .  S
C710        H713   1.084       .  S
C712        C714   1.406       .  A
C712        C718   1.408       .  A
C714        C715   1.401       .  A
C714        H719   1.082       .  S
C715        C716   1.408       .  A
C715       Br723   1.919       .  S
C716        C717   1.405       .  A
C717        C718   1.402       .  A
C717        H720   1.079       .  S
C718       Br724   1.918       .  S
C725        C726   1.408       .  A
C725        C730   1.404       .  A
C726        C727   1.401       .  A
C726       Br742   1.918       .  S
C727        C728   1.406       .  A
C727        H731   1.084       .  S
C728        C729   1.410       .  A
C728        C732   1.488       .  S
C729        C730   1.402       .  A
C729       Br741   1.918       .  S
C730        H733   1.083       .  S
C732        C734   1.403       .  A
C732        C738   1.411       .  A
C734        C735   1.401       .  A
C734        H739   1.083       .  S
C735        C736   1.406       .  A
C735       Br743   1.911       .  S
C736        C737   1.405       .  A
C737        C738   1.405       .  A
C737        H740   1.083       .  S
C738       Br744   1.919       .  S
C745        C746   1.420       .  A
C745        C750   1.409       .  A
C746        C747   1.398       .  A
C746       Br762   1.923       .  S
C747        C748   1.398       .  A
C747        H751   1.085       .  S
C748        C749   1.407       .  A
C748        C752   1.482       .  S
C749        C750   1.405       .  A
C749       Br761   1.917       .  S
C750        H753   1.084       .  S
C752        C754   1.402       .  A
C752        C758   1.410       .  A
C754        C755   1.401       .  A
C754        H759   1.083       .  S
C755        C756   1.409       .  A
C755       Br763   1.916       .  S
C756        C757   1.403       .  A
C757        C758   1.401       .  A
C757        H760   1.084       .  S
C758       Br764   1.918       .  S
C765        C766   1.411       .  A
C765        C770   1.405       .  A
C766        C767   1.408       .  A
C766       Br782   1.916       .  S
C767        C768   1.406       .  A
C767        H771   1.082       .  S
C768        C769   1.406       .  A
C768        C772   1.484       .  S
C769        C770   1.396       .  A
C769       Br781   1.919       .  S
C770        H773   1.082       .  S
C772        C774   1.404       .  A
C772        C778   1.410       .  A
C774        C775   1.405       .  A
C774        H779   1.083       .  S
C775        C776   1.409       .  A
C775       Br783   1.917       .  S
C776        C777   1.401       .  A
C777        C778   1.398       .  A
C777        H780   1.083       .  S
C778       Br784   1.919       .  S
C785        C786   1.417       .  A
C785        C790   1.408       .  A
C786        C787   1.408       .  A
C786       Br802   1.917       .  S
C787        C788   1.404       .  A
C787        H791   1.084       .  S
C788        C789   1.405       .  A
C788        C792   1.486       .  S
C789        C790   1.396       .  A
C789       Br801   1.920       .  S
C790        H793   1.082       .  S
C792        C794   1.404       .  A
C792        C798   1.409       .  A
C794        C795   1.398       .  A
C794        H799   1.084       .  S
C795        C796   1.408       .  A
C795       Br803   1.917       .  S
C796        C797   1.406       .  A
C797        C798   1.406       .  A
C797        H800   1.083       .  S
C798       Br804   1.917       .  S
C805        C806   1.408       .  A
C805        C810   1.404       .  A
C806        C807   1.399       .  A
C806       Br822   1.919       .  S
C807        C808   1.405       .  A
C807        H811   1.084       .  S
C808        C809   1.410       .  A
C808        C812   1.486       .  S
C809        C810   1.401       .  A
C809       Br821   1.918       .  S
C810        H813   1.082       .  S
C812        C814   1.406       .  A
C812        C818   1.411       .  A
C814        C815   1.402       .  A
C814        H819   1.082       .  S
C815        C816   1.408       .  A
C815       Br823   1.920       .  S
C816        C817   1.402       .  A
C817        C818   1.398       .  A
C817        H820   1.082       .  S
C818       Br824   1.919       .  S
C825        C826   1.407       .  A
C825        C830   1.401       .  A
C826        C827   1.400       .  A
C826       Br842   1.918       .  S
C827        C828   1.404       .  A
C827        H831   1.083       .  S
C828        C829   1.412       .  A
C828        C832   1.484       .  S
C829        C830   1.400       .  A
C829       Br841   1.919       .  S
C830        H833   1.084       .  S
C832        C834   1.401       .  A
C832        C838   1.410       .  A
C834        C835   1.399       .  A
C834        H839   1.083       .  S
C835        C836   1.412       .  A
C835       Br843   1.913       .  S
C836        C837   1.405       .  A
C837        C838   1.402       .  A
C837        H840   1.083       .  S
C838       Br844   1.916       .  S
C845        C846   1.411       .  A
C845        C850   1.405       .  A
C846        C847   1.401       .  A
C846       Br862   1.918       .  S
C847        C848   1.403       .  A
C847        H851   1.083       .  S
C848        C849   1.408       .  A
C848        C852   1.482       .  S
C849        C850   1.402       .  A
C849       Br861   1.917       .  S
C850        H853   1.082       .  S
C852        C854   1.394       .  A
C852        C858   1.410       .  A
C854        C855   1.393       .  A
C854        H859   1.085       .  S
C855        C856   1.418       .  A
C855       Br863   1.914       .  S
C856        C857   1.407       .  A
C857        C858   1.409       .  A
C857        H860   1.084       .  S
C858       Br864   1.915       .  S
C865        C866   1.410       .  A
C865        C870   1.402       .  A
C866        C867   1.402       .  A
C866       Br882   1.918       .  S
C867        C868   1.402       .  A
C867        H871   1.082       .  S
C868        C869   1.409       .  A
C868        C872   1.478       .  S
C869        C870   1.397       .  A
C869       Br881   1.919       .  S
C870        H873   1.082       .  S
C872        C874   1.399       .  A
C872        C878   1.407       .  A
C874        C875   1.396       .  A
C874        H879   1.083       .  S
C875        C876   1.416       .  A
C875       Br883   1.923       .  S
C876        C877   1.407       .  A
C877        C878   1.403       .  A
C877        H880   1.082       .  S
C878       Br884   1.917       .  S
C885        C886   1.408       .  A
C885        C890   1.404       .  A
C886        C887   1.397       .  A
C886       Br902   1.919       .  S
C887        C888   1.404       .  A
C887        H891   1.082       .  S
C888        C889   1.410       .  A
C888        C892   1.482       .  S
C889        C890   1.402       .  A
C889       Br901   1.918       .  S
C890        H893   1.081       .  S
C892        C894   1.394       .  A
C892        C898   1.410       .  A
C894        C895   1.391       .  A
C894        H899   1.084       .  S
C895        C896   1.424       .  A
C895       Br903   1.926       .  S
C896        C897   1.407       .  A
C897        C898   1.408       .  A
C897        H900   1.082       .  S
C898       Br904   1.917       .  S
C905        C906   1.415       .  A
C905        C910   1.406       .  A
C906        C907   1.394       .  A
C906       Br922   1.923       .  S
C907        C908   1.398       .  A
C907        H911   1.083       .  S
C908        C909   1.407       .  A
C908        C912   1.475       .  S
C909        C910   1.403       .  A
C909       Br921   1.918       .  S
C910        H913   1.082       .  S
C912        C914   1.401       .  A
C912        C918   1.409       .  A
C914        C915   1.400       .  A
C914        H919   1.085       .  S
C915        C916   1.411       .  A
C915       Br923   1.918       .  S
C916        C917   1.401       .  A
C917        C918   1.396       .  A
C917        H920   1.085       .  S
C918       Br924   1.920       .  S
C925        C926   1.407       .  A
C925        C930   1.404       .  A
C926        C927   1.398       .  A
C926       Br942   1.920       .  S
C927        C928   1.406       .  A
C927        H931   1.084       .  S
C928        C929   1.411       .  A
C928        C932   1.488       .  S
C929        C930   1.402       .  A
C929       Br941   1.918       .  S
C930        H933   1.083       .  S
C932        C934   1.408       .  A
C932        C938   1.410       .  A
C934        C935   1.404       .  A
C934        H939   1.081       .  S
C935        C936   1.409       .  A
C935       Br943   1.920       .  S
C936        C937   1.403       .  A
C937        C938   1.397       .  A
C937        H940   1.082       .  S
C938       Br944   1.921       .  S
C945        C946   1.408       .  A
C945        C950   1.400       .  A
C946        C947   1.401       .  A
C946       Br962   1.919       .  S
C947        C948   1.405       .  A
C947        H951   1.084       .  S
C948        C949   1.412       .  A
C948        C952   1.483       .  S
C949        C950   1.399       .  A
C949       Br961   1.919       .  S
C950        H953   1.084       .  S
C952        C954   1.402       .  A
C952        C958   1.410       .  A
C954        C955   1.399       .  A
C954        H959   1.083       .  S
C955        C956   1.411       .  A
C955       Br963   1.916       .  S
C956        C957   1.406       .  A
C957        C958   1.402       .  A
C957        H960   1.083       .  S
C958       Br964   1.920       .  S
C965        C966   1.413       .  A
C965        C970   1.408       .  A
C966        C967   1.401       .  A
C966       Br982   1.917       .  S
C967        C968   1.404       .  A
C967        H971   1.084       .  S
C968        C969   1.407       .  A
C968        C972   1.487       .  S
C969        C970   1.404       .  A
C969       Br981   1.917       .  S
C970        H973   1.083       .  S
C972        C974   1.406       .  A
C972        C978   1.408       .  A
C974        C975   1.406       .  A
C974        H979   1.082       .  S
C975        C976   1.410       .  A
C975       Br983   1.917       .  S
C976        C977   1.403       .  A
C977        C978   1.398       .  A
C977        H980   1.083       .  S
C978       Br984   1.919       .  S
C985        C986   1.410       .  A
C985        C990   1.402       .  A
C986        C987   1.402       .  A
C986      Br1002   1.917       .  S
C987        C988   1.403       .  A
C987        H991   1.084       .  S
C988        C989   1.408       .  A
C988        C992   1.479       .  S
C989        C990   1.398       .  A
C989      Br1001   1.918       .  S
C990        H993   1.084       .  S
C992        C994   1.404       .  A
C992        C998   1.404       .  A
C994        C995   1.407       .  A
C994        H999   1.083       .  S
C995        C996   1.416       .  A
C995      Br1003   1.919       .  S
C996        C997   1.409       .  A
C997        C998   1.392       .  A
C997       H1000   1.084       .  S
C998      Br1004   1.921       .  S
C1005      C1006   1.413       .  A
C1005      C1010   1.410       .  A
C1006      C1007   1.409       .  A
C1006     Br1022   1.916       .  S
C1007      C1008   1.408       .  A
C1007      H1011   1.083       .  S
C1008      C1009   1.405       .  A
C1008      C1012   1.484       .  S
C1009      C1010   1.391       .  A
C1009     Br1021   1.924       .  S
C1010      H1013   1.083       .  S
C1012      C1014   1.403       .  A
C1012      C1018   1.411       .  A
C1014      C1015   1.401       .  A
C1014      H1019   1.082       .  S
C1015      C1016   1.409       .  A
C1015     Br1023   1.916       .  S
C1016      C1017   1.404       .  A
C1017      C1018   1.398       .  A
C1017      H1020   1.082       .  S
C1018     Br1024   1.921       .  S
C1025      C1026   1.412       .  A
C1025      C1030   1.406       .  A
C1026      C1027   1.407       .  A
C1026     Br1042   1.918       .  S
C1027      C1028   1.406       .  A
C1027      H1031   1.085       .  S
C1028      C1029   1.406       .  A
C1028      C1032   1.484       .  S
C1029      C1030   1.396       .  A
C1029     Br1041   1.919       .  S
C1030      H1033   1.085       .  S
C1032      C1034   1.404       .  A
C1032      C1038   1.407       .  A
C1034      C1035   1.401       .  A
C1034      H1039   1.082       .  S
C1035      C1036   1.411       .  A
C1035     Br1043   1.919       .  S
C1036      C1037   1.407       .  A
C1037      C1038   1.402       .  A
C1037      H1040   1.081       .  S
C1038     Br1044   1.916       .  S
C1045      C1046   1.410       .  A
C1045      C1050   1.409       .  A
C1046      C1047   1.401       .  A
C1046     Br1062   1.918       .  S
C1047      C1048   1.405       .  A
C1047      H1051   1.083       .  S
C1048      C1049   1.410       .  A
C1048      C1052   1.493       .  S
C1049      C1050   1.407       .  A
C1049     Br1061   1.917       .  S
C1050      H1053   1.082       .  S
C1052      C1054   1.407       .  A
C1052      C1058   1.411       .  A
C1054      C1055   1.408       .  A
C1054      H1059   1.085       .  S
C1055      C1056   1.410       .  A
C1055     Br1063   1.918       .  S
C1056      C1057   1.404       .  A
C1057      C1058   1.400       .  A
C1057      H1060   1.086       .  S
C1058     Br1064   1.919       .  S
C1065      C1066   1.409       .  A
C1065      C1070   1.403       .  A
C1066      C1067   1.404       .  A
C1066     Br1082   1.917       .  S
C1067      C1068   1.405       .  A
C1067      H1071   1.083       .  S
C1068      C1069   1.411       .  A
C1068      C1072   1.487       .  S
C1069      C1070   1.401       .  A
C1069     Br1081   1.918       .  S
C1070      H1073   1.083       .  S
C1072      C1074   1.397       .  A
C1072      C1078   1.412       .  A
C1074      C1075   1.396       .  A
C1074      H1079   1.083       .  S
C1075      C1076   1.417       .  A
C1075     Br1083   1.918       .  S
C1076      C1077   1.407       .  A
C1077      C1078   1.410       .  A
C1077      H1080   1.082       .  S
C1078     Br1084   1.916       .  S
C1085      C1086   1.409       .  A
C1085      C1090   1.402       .  A
C1086      C1087   1.406       .  A
C1086     Br1102   1.919       .  S
C1087      C1088   1.407       .  A
C1087      H1091   1.084       .  S
C1088      C1089   1.410       .  A
C1088      C1092   1.490       .  S
C1089      C1090   1.400       .  A
C1089     Br1101   1.917       .  S
C1090      H1093   1.084       .  S
C1092      C1094   1.405       .  A
C1092      C1098   1.410       .  A
C1094      C1095   1.401       .  A
C1094      H1099   1.083       .  S
C1095      C1096   1.408       .  A
C1095     Br1103   1.918       .  S
C1096      C1097   1.407       .  A
C1097      C1098   1.405       .  A
C1097      H1100   1.083       .  S
C1098     Br1104   1.917       .  S
C1105      C1106   1.410       .  A
C1105      C1110   1.405       .  A
C1106      C1107   1.405       .  A
C1106     Br1122   1.918       .  S
C1107      C1108   1.406       .  A
C1107      H1111   1.083       .  S
C1108      C1109   1.412       .  A
C1108      C1112   1.493       .  S
C1109      C1110   1.404       .  A
C1109     Br1121   1.919       .  S
C1110      H1113   1.082       .  S
C1112      C1114   1.400       .  A
C1112      C1118   1.412       .  A
C1114      C1115   1.400       .  A
C1114      H1119   1.084       .  S
C1115      C1116   1.417       .  A
C1115     Br1123   1.918       .  S
C1116      C1117   1.407       .  A
C1117      C1118   1.407       .  A
C1117      H1120   1.084       .  S
C1118     Br1124   1.914       .  S
C1125      C1126   1.415       .  A
C1125      C1130   1.408       .  A
C1126      C1127   1.395       .  A
C1126     Br1142   1.914       .  S
C1127      C1128   1.396       .  A
C1127      H1131   1.085       .  S
C1128      C1129   1.408       .  A
C1128      C1132   1.481       .  S
C1129      C1130   1.408       .  A
C1129     Br1141   1.916       .  S
C1130      H1133   1.084       .  S
C1132      C1134   1.403       .  A
C1132      C1138   1.408       .  A
C1134      C1135   1.400       .  A
C1134      H1139   1.085       .  S
C1135      C1136   1.409       .  A
C1135     Br1143   1.918       .  S
C1136      C1137   1.403       .  A
C1137      C1138   1.401       .  A
C1137      H1140   1.085       .  S
C1138     Br1144   1.917       .  S
C1145      C1146   1.410       .  A
C1145      C1150   1.402       .  A
C1146      C1147   1.402       .  A
C1146     Br1162   1.917       .  S
C1147      C1148   1.402       .  A
C1147      H1151   1.085       .  S
C1148      C1149   1.408       .  A
C1148      C1152   1.478       .  S
C1149      C1150   1.397       .  A
C1149     Br1161   1.919       .  S
C1150      H1153   1.085       .  S
C1152      C1154   1.400       .  A
C1152      C1158   1.407       .  A
C1154      C1155   1.398       .  A
C1154      H1159   1.082       .  S
C1155      C1156   1.412       .  A
C1155     Br1163   1.918       .  S
C1156      C1157   1.406       .  A
C1157      C1158   1.402       .  A
C1157      H1160   1.082       .  S
C1158     Br1164   1.917       .  S
C1165      C1166   1.412       .  A
C1165      C1170   1.406       .  A
C1166      C1167   1.403       .  A
C1166     Br1182   1.919       .  S
C1167      C1168   1.404       .  A
C1167      H1171   1.082       .  S
C1168      C1169   1.408       .  A
C1168      C1172   1.485       .  S
C1169      C1170   1.399       .  A
C1169     Br1181   1.919       .  S
C1170      H1173   1.082       .  S
C1172      C1174   1.407       .  A
C1172      C1178   1.407       .  A
C1174      C1175   1.407       .  A
C1174      H1179   1.084       .  S
C1175      C1176   1.409       .  A
C1175     Br1183   1.915       .  S
C1176      C1177   1.404       .  A
C1177      C1178   1.396       .  A
C1177      H1180   1.085       .  S
C1178     Br1184   1.920       .  S
C1185      C1186   1.411       .  A
C1185      C1190   1.405       .  A
C1186      C1187   1.405       .  A
C1186     Br1202   1.917       .  S
C1187      C1188   1.404       .  A
C1187      H1191   1.084       .  S
C1188      C1189   1.405       .  A
C1188      C1192   1.477       .  S
C1189      C1190   1.395       .  A
C1189     Br1201   1.919       .  S
C1190      H1193   1.085       .  S
C1192      C1194   1.403       .  A
C1192      C1198   1.405       .  A
C1194      C1195   1.400       .  A
C1194      H1199   1.085       .  S
C1195      C1196   1.410       .  A
C1195     Br1203   1.920       .  S
C1196      C1197   1.404       .  A
C1197      C1198   1.398       .  A
C1197      H1200   1.085       .  S
C1198     Br1204   1.916       .  S
