geometry optimzed in LAMMPS
_audit_creation_date              2020-11-30 
_audit_creation_method            'lammps2cif' 
_symmetry_space_group_name_H-M    'P1' 
_symmetry_Int_Tables_number       1 
_symmetry_cell_setting            triclinic 
loop_ 
_symmetry_equiv_pos_as_xyz 
  x,y,z 
_cell_length_a                    33.98530779 
_cell_length_b                    33.39529175122533 
_cell_length_c                    50.9527525205294 
_cell_angle_alpha                 91.3295210396142 
_cell_angle_beta                  90.98063426465241 
_cell_angle_gamma                 86.47255774978757 
loop_ 
_atom_site_label 
_atom_site_type_symbol 
_atom_site_fract_x 
_atom_site_fract_y 
_atom_site_fract_z 
_atom_site_charge 
N1          N  0.48218301  0.85454181  0.25713047    -0.03200
C2          C  0.45889159  0.84239827  0.27653102    -0.00600
C3          C  0.44139262  0.87558597  0.28949647    -0.23500
C4          C  0.45397382  0.90886953  0.27766066    -0.23700
C5          C  0.47879967  0.89529317  0.25774395    -0.00700
H6          H  0.41975640  0.87571522  0.30483623     0.13000
H7          H  0.44411350  0.93970260  0.28202919     0.13100
N8          N  0.81673014  0.38585378  0.74537253    -0.03200
C9          C  0.79618876  0.35345176  0.73850716    -0.00600
C10         C  0.81907052  0.31832101  0.74198587    -0.23500
C11         C  0.85527896  0.32929143  0.75070503    -0.23700
C12         C  0.85363810  0.37078077  0.75195399    -0.00700
H13         H  0.81123549  0.28815623  0.73691096     0.13000
H14         H  0.88142292  0.30934280  0.75280774     0.13100
N15         N  0.41072578  0.78783519  0.74670985    -0.03200
C16         C  0.38177132  0.76241408  0.74120531    -0.00600
C17         C  0.34551317  0.78341684  0.74017090    -0.23500
C18         C  0.35227574  0.82296281  0.74493208    -0.23700
C19         C  0.39260912  0.82541878  0.74844611    -0.00700
H20         H  0.31744104  0.77176960  0.73469723     0.13000
H21         H  0.33032713  0.84777746  0.74373306     0.13100
N22         N  0.72974473  0.59920270  0.15491847    -0.27000
N23         N  0.71624146  0.61454700  0.17737852    -0.34900
C24         C  0.73639882  0.59682858  0.19735850     0.01300
C25         C  0.76400201  0.56881540  0.18701697     0.07300
C26         C  0.75865659  0.57090738  0.16001828    -0.05800
H27         H  0.73088010  0.60343409  0.21789989     0.08000
H28         H  0.77497072  0.55352876  0.14517653     0.09200
Cu29       Cu  0.67078210  0.65870991  0.17947701     0.44200
Cu30       Cu  0.70838541  0.61922636  0.11868802     0.42000
Cu31       Cu  0.63125339  0.70146204  0.11893893     0.43900
N32         N  0.62614960  0.70377006  0.17793375    -0.34400
N33         N  0.61212887  0.72032879  0.15614421    -0.28700
C34         C  0.58451164  0.74949213  0.16248429    -0.04800
C35         C  0.58047490  0.75107584  0.18967871     0.07400
C36         C  0.60764088  0.72147900  0.19857882     0.01200
H37         H  0.56932421  0.76846186  0.14819347     0.08900
H38         H  0.61368230  0.71305205  0.21867076     0.08000
N39         N  0.65583243  0.67498571  0.08503736    -0.35900
N40         N  0.68359394  0.64541494  0.08508638    -0.28100
C41         C  0.69282496  0.63532955  0.06014206    -0.03300
C42         C  0.67000679  0.65969075  0.04341569     0.05300
C43         C  0.64669867  0.68433637  0.05999552     0.03400
H44         H  0.71485876  0.61204549  0.05460819     0.08500
H45         H  0.62415150  0.70691929  0.05438324     0.07300
N46         N  0.60158277  0.69603251  0.81788792    -0.27000
N47         N  0.60994685  0.67792888  0.79511050    -0.34900
C48         C  0.58402569  0.69262681  0.77679332     0.01300
C49         C  0.55812542  0.72106948  0.78874560     0.07300
C50         C  0.57031201  0.72216998  0.81477359    -0.05800
H51         H  0.58266185  0.68174655  0.75665510     0.01600
H52         H  0.55652441  0.73970879  0.83060746     0.09200
Cu53       Cu  0.65412233  0.63121066  0.79127744     0.44200
Cu54       Cu  0.62956714  0.68275716  0.85331182     0.42000
Cu55       Cu  0.70444916  0.60404527  0.85355599     0.43900
N56         N  0.69861962  0.58484600  0.79501261    -0.34400
N57         N  0.71658169  0.57572768  0.81757108    -0.28700
C58         C  0.74169759  0.54345230  0.81384536    -0.04800
C59         C  0.73977476  0.53148173  0.78774131     0.07400
C60         C  0.71213851  0.55833014  0.77633498     0.01200
H61         H  0.75881036  0.52860875  0.82929511     0.08900
H62         H  0.70130858  0.55745381  0.75625458     0.08000
N63         N  0.68464902  0.63317820  0.88776804    -0.35900
N64         N  0.65689685  0.66259979  0.88755086    -0.28100
C65         C  0.64871564  0.67424264  0.91240313    -0.03300
C66         C  0.67220094  0.65073911  0.92927216     0.05300
C67         C  0.69490987  0.62521457  0.91283065     0.03400
H68         H  0.62629197  0.69721750  0.91779558     0.08500
H69         H  0.71713008  0.60236470  0.91853597     0.07300
N70         N  0.86602524  0.45823107  0.24518823    -0.03200
C71         C  0.85097721  0.42762898  0.25819212    -0.00600
C72         C  0.88013987  0.40616425  0.27176679    -0.23500
C73         C  0.91443435  0.42393003  0.26721127    -0.23700
C74         C  0.90567813  0.45613738  0.25081222    -0.00700
H75         H  0.87683434  0.38005956  0.28354617     0.13000
H76         H  0.94319952  0.41303724  0.27435376     0.13100
N77         N  0.50245131  0.22368460  0.62953851    -0.27000
N78         N  0.51185205  0.23890775  0.65275957    -0.34900
C79         C  0.50342345  0.21319614  0.67141928     0.01300
C80         C  0.48763714  0.17990508  0.65952532     0.07300
C81         C  0.48716096  0.18802321  0.63285626    -0.05800
H82         H  0.51275668  0.21652372  0.69169376     0.08000
H83         H  0.47977569  0.16797071  0.61680140     0.09200
Cu84       Cu  0.54669525  0.28679139  0.65791440     0.44200
Cu85       Cu  0.52180378  0.24608721  0.59474832     0.42000
Cu86       Cu  0.60209424  0.31428670  0.60247652     0.43900
N87         N  0.59683170  0.31813110  0.66137376    -0.34400
N88         N  0.61827076  0.32726945  0.64123434    -0.28700
C89         C  0.65247126  0.34084264  0.65044585    -0.04800
C90         C  0.65265302  0.33962685  0.67766889     0.07400
C91         C  0.61662481  0.32547085  0.68382247     0.01200
H92         H  0.67662451  0.34815482  0.63822065     0.08900
H93         H  0.60633042  0.31867237  0.70308705     0.08000
N94         N  0.58095817  0.29294213  0.56648020    -0.35900
N95         N  0.55218412  0.26815937  0.56378360    -0.28100
C96         C  0.54675903  0.25941949  0.53813637    -0.03300
C97         C  0.57349977  0.27937138  0.52388592     0.05300
C98         C  0.59435430  0.30077435  0.54255429     0.03400
H99         H  0.52515078  0.23957493  0.53042792     0.08500
H100        H  0.61688640  0.32141416  0.53921339     0.07300
N101        N  0.66132853  0.33789237  0.30731378    -0.27000
N102        N  0.65508248  0.32190866  0.28375628    -0.34900
C103        C  0.67879851  0.33802970  0.26653128     0.01300
C104        C  0.70150933  0.36527475  0.27985547     0.07300
C105        C  0.68922581  0.36466644  0.30566228    -0.05800
H106        H  0.68100190  0.32873147  0.24610732     0.08000
H107        H  0.70189010  0.38014972  0.32235847     0.09200
Cu108      Cu  0.61961109  0.27403883  0.27686700     0.44200
Cu109      Cu  0.63535909  0.31789889  0.34091384     0.42000
Cu110      Cu  0.57126560  0.23370901  0.33208185     0.43900
N111        N  0.58761168  0.22286876  0.27442296    -0.34400
N112        N  0.56945162  0.20813187  0.29445959    -0.28700
C113        C  0.55256428  0.17435401  0.28642823    -0.04800
C114        C  0.56064036  0.16740193  0.26005224     0.07400
C115        C  0.58303509  0.19877786  0.25322667     0.01200
H116        H  0.53674998  0.15558374  0.29908759     0.08900
H117        H  0.59537326  0.20362527  0.23420781     0.08000
N118        N  0.58209283  0.26244569  0.36795155    -0.35900
N119        N  0.60602800  0.29204303  0.37115869    -0.28100
C120        C  0.60852028  0.30179828  0.39686238    -0.03300
C121        C  0.58462247  0.27771843  0.41049133     0.05300
C122        C  0.56848678  0.25294253  0.39154324     0.03400
H123        H  0.62675618  0.32452941  0.40509954     0.08500
H124        H  0.54973889  0.22854577  0.39469252     0.07300
N125        N  0.51767589  0.04961359  0.18328189    -0.03200
C126        C  0.51137767  0.06457148  0.15899638    -0.00600
C127        C  0.50957140  0.03364622  0.14063265    -0.23500
C128        C  0.51446501  0.99848966  0.15428710    -0.23700
C129        C  0.51931121  0.00907153  0.18052507    -0.00700
H130        H  0.50198930  0.03630243  0.12000729     0.13000
H131        H  0.51066799  0.96862672  0.14631979     0.13100
N132        N  0.03362129  0.43463947  0.73029531    -0.03200
C133        C  0.05163221  0.46514675  0.71932919    -0.00600
C134        C  0.02689554  0.49953752  0.71914040    -0.23500
C135        C  0.99231388  0.48990247  0.73031216    -0.23700
C136        C  0.99715425  0.45004373  0.73711006    -0.00700
H137        H  0.03281956  0.52804742  0.71083878     0.13000
H138        H  0.96555919  0.50910897  0.73169434     0.13100
N139        N  0.45698408  0.00826792  0.72022114    -0.03200
C140        C  0.48569898  0.02353722  0.70597773    -0.00600
C141        C  0.51623034  0.99495980  0.70179488    -0.23500
C142        C  0.50587183  0.96068757  0.71360045    -0.23700
C143        C  0.46932016  0.96937945  0.72453464    -0.00700
H144        H  0.54249771  0.99825123  0.69052779     0.13000
H145        H  0.52209450  0.93176984  0.71286221     0.13100
N146        N  0.41593722  0.26342033  0.10061007    -0.27000
N147        N  0.40376919  0.27473533  0.12429798    -0.34900
C148        C  0.42068157  0.24943396  0.14195894     0.01300
C149        C  0.44419058  0.22027459  0.12875199     0.07300
C150        C  0.44073293  0.23063098  0.10258588    -0.05800
H151        H  0.41475224  0.25130117  0.16273884     0.08000
H152        H  0.45299129  0.21379255  0.08593671     0.09200
Cu153      Cu  0.35945654  0.31952764  0.13121122     0.44200
Cu154      Cu  0.39334116  0.28818505  0.06613620     0.42000
Cu155      Cu  0.31021123  0.35963895  0.07286901     0.43900
N156        N  0.30952088  0.35903788  0.13212316    -0.34400
N157        N  0.29201339  0.37376965  0.11075482    -0.28700
C158        C  0.25892704  0.39533044  0.11756692    -0.04800
C159        C  0.25494882  0.39388680  0.14449304     0.07400
C160        C  0.28778467  0.37077864  0.15312165     0.01200
H161        H  0.23790904  0.40891881  0.10373094     0.08900
H162        H  0.29492971  0.36207789  0.17301546     0.08000
N163        N  0.32972640  0.33656528  0.03697224    -0.35900
N164        N  0.36040203  0.31056959  0.03450794    -0.28100
C165        C  0.36413900  0.29971925  0.00906793    -0.03300
C166        C  0.33412586  0.31947196  0.99477910     0.05300
C167        C  0.31309816  0.34295897  0.01316942     0.03400
H168        H  0.38628136  0.27790504  0.00161412     0.08500
H169        H  0.28777415  0.36340710  0.00977637     0.07300
N170        N  0.31843764  0.17857918  0.78104966    -0.27000
N171        N  0.29383627  0.17846147  0.76062940    -0.34900
C172        C  0.30580905  0.14761278  0.74428570     0.01300
C173        C  0.33935910  0.12746493  0.75515020     0.07300
C174        C  0.34614154  0.14859089  0.77829642    -0.05800
H175        H  0.29062798  0.14001849  0.72620623     0.08000
H176        H  0.36985783  0.14289470  0.79238686     0.09200
Cu177      Cu  0.24470895  0.22059551  0.75716845     0.44200
Cu178      Cu  0.31568557  0.21678566  0.81356500     0.42000
Cu179      Cu  0.23970588  0.29017092  0.81414758     0.43900
N180        N  0.20000330  0.26716974  0.76261680    -0.34400
N181        N  0.19937347  0.29142215  0.78351032    -0.28700
C182        C  0.16799718  0.31762790  0.78205955    -0.04800
C183        C  0.14695495  0.31030191  0.75914535     0.07400
C184        C  0.16842149  0.27791018  0.74718434     0.01200
H185        H  0.16151892  0.34108853  0.79662098     0.08900
H186        H  0.16160982  0.26274715  0.72888404     0.08000
N187        N  0.27931164  0.28451671  0.84503460    -0.35900
N188        N  0.30823293  0.25638949  0.84510000    -0.28100
C189        C  0.32740134  0.25753219  0.86841473    -0.03300
C190        C  0.30966056  0.28832111  0.88365935     0.05300
C191        C  0.27907484  0.30449058  0.86819733     0.03400
H192        H  0.35065647  0.23589811  0.87430498     0.08500
H193        H  0.25727949  0.32799437  0.87376753     0.07300
N194        N  0.08580188  0.46905428  0.20191130    -0.03200
C195        C  0.10204172  0.44366862  0.18323032    -0.00600
C196        C  0.07340197  0.42545523  0.16876190    -0.23500
C197        C  0.03806632  0.43990404  0.17868924    -0.23700
C198        C  0.04590191  0.46667058  0.19912684    -0.00700
H199        H  0.07781350  0.40358873  0.15291072     0.13000
H200        H  0.00944404  0.43066166  0.17220291     0.13100
N201        N  0.24756059  0.47335796  0.64038955    -0.27000
N202        N  0.26375355  0.48042491  0.66365715    -0.34900
C203        C  0.23815609  0.47253743  0.68239318     0.01300
C204        C  0.20406855  0.45974065  0.67043293     0.07300
C205        C  0.21139742  0.46038693  0.64373742    -0.05800
H206        H  0.24249718  0.47989818  0.70297724     0.08000
H207        H  0.19078718  0.45513060  0.62780333     0.09200
Cu208      Cu  0.31485741  0.51023001  0.66921692     0.44200
Cu209      Cu  0.27033647  0.49108485  0.60530961     0.42000
Cu210      Cu  0.34693232  0.56100380  0.61241084     0.43900
N211        N  0.35341617  0.55568744  0.67147511    -0.34400
N212        N  0.36357575  0.57574492  0.65086716    -0.28700
C213        C  0.38042202  0.60921251  0.65931461    -0.04800
C214        C  0.38146545  0.61014332  0.68661399     0.07400
C215        C  0.36395010  0.57553955  0.69348488     0.01200
H216        H  0.38688423  0.63317434  0.64648676     0.08900
H217        H  0.35577751  0.56747477  0.71300971     0.08000
N218        N  0.32290815  0.54366970  0.57625857    -0.35900
N219        N  0.29432021  0.51864804  0.57376845    -0.28100
C220        C  0.28325742  0.51591208  0.54832830    -0.03300
C221        C  0.30645539  0.53979056  0.53401839     0.05300
C222        C  0.33112577  0.55710651  0.55237121     0.03400
H223        H  0.25972199  0.49824464  0.54084094     0.08500
H224        H  0.35232616  0.57914870  0.54880964     0.07300
N225        N  0.35458014  0.65130912  0.32047693    -0.27000
N226        N  0.33530230  0.65398436  0.29777831    -0.34900
C227        C  0.35266418  0.68033437  0.28276882     0.01300
C228        C  0.38490264  0.69472029  0.29648656     0.07300
C229        C  0.38488411  0.67528222  0.32030546    -0.05800
H230        H  0.34036286  0.69038640  0.26425110     0.08000
H231        H  0.40420797  0.67988458  0.33704462     0.09200
Cu232      Cu  0.28396976  0.62440788  0.28920616     0.44200
Cu233      Cu  0.33567524  0.62153886  0.35293029     0.42000
Cu234      Cu  0.24554710  0.57375005  0.34526187     0.43900
N235        N  0.23453508  0.59005564  0.28723012    -0.34400
N236        N  0.22122006  0.57158405  0.30768424    -0.28700
C237        C  0.19091728  0.54991752  0.29989986    -0.04800
C238        C  0.18466371  0.55484423  0.27327542     0.07400
C239        C  0.21270893  0.58062561  0.26586051     0.01200
H240        H  0.17527192  0.53109788  0.31262691     0.08900
H241        H  0.21806566  0.59021010  0.24617053     0.08000
N242        N  0.27442606  0.57876150  0.38125405    -0.35900
N243        N  0.30811774  0.59618094  0.38408905    -0.28100
C244        C  0.31981100  0.59447976  0.40942603    -0.03300
C245        C  0.29195201  0.57533638  0.42331912     0.05300
C246        C  0.26373915  0.56545013  0.40467028     0.03400
H247        H  0.34665634  0.60631522  0.41721006     0.08500
H248        H  0.23810480  0.54855457  0.40751613     0.07300
C249        C  0.26636091  0.56241087  0.49524731    -0.26100
C250        C  0.30288291  0.54797685  0.50562283    -0.14100
C251        C  0.33524621  0.54163406  0.48869102     0.36500
C252        C  0.33064477  0.55035074  0.46202661    -0.25500
C253        C  0.29425274  0.56520075  0.45157435    -0.14800
C254        C  0.26174759  0.57139696  0.46857837     0.37600
N255        N  0.22430664  0.58852707  0.45976087    -0.89000
H256        H  0.24139884  0.56759859  0.50811307     0.18700
H257        H  0.35576425  0.54520034  0.44929746     0.18700
N258        N  0.37279182  0.52522914  0.49784436    -0.88000
H259        H  0.21202752  0.56890183  0.44623314     0.36100
H260        H  0.22862960  0.61570840  0.45066544     0.41200
H261        H  0.36875250  0.49781842  0.50660964     0.40800
H262        H  0.38395091  0.54486334  0.51195883     0.35700
C263        C  0.13742072  0.47031381  0.23600081    -0.26100
C264        C  0.10830814  0.49118974  0.22092524    -0.14100
C265        C  0.10356712  0.53332601  0.22356163     0.36500
C266        C  0.12852585  0.55372042  0.24105582    -0.25500
C267        C  0.15789730  0.53261432  0.25587860    -0.14800
C268        C  0.16214625  0.49038091  0.25327043     0.37600
N269        N  0.19235427  0.46715975  0.26707770    -0.89000
H270        H  0.14104683  0.43793340  0.23416351     0.18700
H271        H  0.12526046  0.58612359  0.24304621     0.18700
N272        N  0.07384914  0.55508031  0.20830609    -0.88000
H273        H  0.18759266  0.47050941  0.28723120     0.36100
H274        H  0.21963781  0.47805448  0.26280993     0.41200
H275        H  0.08120954  0.55114140  0.18855664     0.40800
H276        H  0.07404075  0.58585956  0.21262453     0.35700
C277        C  0.20337791  0.44784474  0.15444274    -0.26100
C278        C  0.21953532  0.40885037  0.15922589    -0.14100
C279        C  0.19836089  0.38335167  0.17489981     0.36500
C280        C  0.16112882  0.39653805  0.18412165    -0.25500
C281        C  0.14449137  0.43482874  0.17840655    -0.14800
C282        C  0.16612937  0.46101890  0.16400936     0.37600
N283        N  0.14936578  0.50010943  0.15781228    -0.89000
H284        H  0.21905823  0.46760915  0.14231809     0.18700
H285        H  0.14420585  0.37603837  0.19485816     0.18700
N286        N  0.21243779  0.34303527  0.18028092    -0.88000
H287        H  0.16843230  0.52125517  0.16515526     0.36100
H288        H  0.14799760  0.50231090  0.13739022     0.41200
H289        H  0.23838505  0.34382285  0.19146286     0.40800
H290        H  0.21826008  0.32769313  0.16250657     0.35700
C291        C  0.28398116  0.30169706  0.92838840    -0.26100
C292        C  0.31660883  0.29759866  0.91183105    -0.14100
C293        C  0.35460264  0.30303910  0.92251363     0.36500
C294        C  0.35913798  0.31134236  0.94940999    -0.25500
C295        C  0.32659546  0.31459306  0.96614171    -0.14800
C296        C  0.28844704  0.30991150  0.95527072     0.37600
N297        N  0.25383694  0.31136807  0.97097900    -0.89000
H298        H  0.25466859  0.29757209  0.92045835     0.18700
H299        H  0.38850181  0.31514943  0.95734381     0.18700
N300        N  0.38894354  0.30151649  0.90653164    -0.88000
H301        H  0.24863238  0.34041466  0.97855879     0.36100
H302        H  0.25835688  0.29127083  0.98634809     0.41200
H303        H  0.38408414  0.32182663  0.89132728     0.40800
H304        H  0.39350847  0.27264264  0.89848324     0.35700
C305        C  0.38777344  0.06977535  0.76404435    -0.26100
C306        C  0.36420325  0.09148942  0.74558949    -0.14100
C307        C  0.36787327  0.08030527  0.71880792     0.36500
C308        C  0.39610710  0.04972876  0.71113465    -0.25500
C309        C  0.42196896  0.03073763  0.72950417    -0.14800
C310        C  0.41723774  0.04078430  0.75646289     0.37600
N311        N  0.44308393  0.02437454  0.77668382    -0.89000
H312        H  0.38488186  0.07665518  0.78480311     0.18700
H313        H  0.39984714  0.04267999  0.69042968     0.18700
N314        N  0.34479023  0.10121172  0.69912941    -0.88000
H315        H  0.45758613  0.04807759  0.78539924     0.36100
H316        H  0.46512541  0.00453569  0.76913680     0.41200
H317        H  0.32896643  0.08021937  0.68848677     0.40800
H318        H  0.36405644  0.11372930  0.68627851     0.35700
C319        C  0.13092674  0.46905395  0.66847693    -0.26100
C320        C  0.16513260  0.45719557  0.68287371    -0.14100
C321        C  0.16161417  0.44565635  0.70923355     0.36500
C322        C  0.12437435  0.44881457  0.72100577    -0.25500
C323        C  0.09054688  0.46163877  0.70663998    -0.14800
C324        C  0.09371073  0.47091898  0.67998178     0.37600
N325        N  0.05899965  0.48224833  0.66469311    -0.89000
H326        H  0.13310393  0.47791318  0.64829050     0.18700
H327        H  0.12167647  0.44119471  0.74142391     0.18700
N328        N  0.19565307  0.43050845  0.72386119    -0.88000
H329        H  0.06638400  0.48835317  0.64542375     0.36100
H330        H  0.04153339  0.45752546  0.66360979     0.41200
H331        H  0.20595818  0.40365834  0.71470216     0.40800
H332        H  0.18789478  0.42332367  0.74289491     0.35700
C333        C  0.07253488  0.37281195  0.71722635    -0.26100
C334        C  0.05280919  0.39618919  0.73680342    -0.14100
C335        C  0.05946165  0.38628301  0.76326107     0.36500
C336        C  0.08767397  0.35532801  0.76968072    -0.25500
C337        C  0.11081466  0.33480554  0.75033401    -0.14800
C338        C  0.10172056  0.34249350  0.72363690     0.37600
N339        N  0.12376588  0.32176185  0.70314769    -0.89000
H340        H  0.06720071  0.38044686  0.69687531     0.18700
H341        H  0.09323949  0.34893336  0.79018833     0.18700
N342        N  0.03968017  0.40970406  0.78365402    -0.88000
H343        H  0.11648928  0.33425449  0.68494891     0.36100
H344        H  0.11448292  0.29249671  0.70208014     0.41200
H345        H  0.04940525  0.43877261  0.78315925     0.40800
H346        H  0.04771658  0.39862465  0.80213583     0.35700
C347        C  0.46590317  0.12437183  0.16714298    -0.26100
C348        C  0.49836240  0.10680377  0.15362259    -0.14100
C349        C  0.51468486  0.12772091  0.13321442     0.36500
C350        C  0.49736286  0.16539188  0.12614324    -0.25500
C351        C  0.46384812  0.18253447  0.13900052    -0.14800
C352        C  0.44818308  0.16175317  0.15997308     0.37600
N353        N  0.41305908  0.17725630  0.17295510    -0.89000
H354        H  0.45264120  0.10762674  0.18225855     0.18700
H355        H  0.50974970  0.18116968  0.11020425     0.18700
N356        N  0.54838058  0.11026477  0.11950949    -0.88000
H357        H  0.40601739  0.15867624  0.18821518     0.36100
H358        H  0.38978900  0.17661879  0.15929290     0.41200
H359        H  0.57186836  0.10773952  0.13300597     0.40800
H360        H  0.55675483  0.12935666  0.10489522     0.35700
C361        C  0.50347594  0.08633895  0.22480565    -0.26100
C362        C  0.53057839  0.07279784  0.20563804    -0.14100
C363        C  0.56865798  0.08769655  0.20609529     0.36500
C364        C  0.57771780  0.11774851  0.22440176    -0.25500
C365        C  0.55006213  0.13308603  0.24273981    -0.14800
C366        C  0.51269907  0.11663285  0.24330493     0.37600
N367        N  0.48360088  0.13210028  0.26164570    -0.89000
H368        H  0.47432374  0.07491632  0.22428284     0.18700
H369        H  0.60670246  0.12954635  0.22405656     0.18700
N370        N  0.59843803  0.07395565  0.18769598    -0.88000
H371        H  0.45776676  0.11679297  0.25944234     0.36100
H372        H  0.47617285  0.16195176  0.25695280     0.41200
H373        H  0.58892555  0.05087509  0.17546597     0.40800
H374        H  0.62237815  0.06143059  0.19848573     0.35700
C375        C  0.47720614  0.09827347  0.70976359    -0.26100
C376        C  0.48350443  0.06360557  0.69401274    -0.14100
C377        C  0.48814443  0.06712394  0.66676989     0.36500
C378        C  0.48838476  0.10530364  0.65596364    -0.25500
C379        C  0.48315237  0.14032968  0.67166943    -0.14800
C380        C  0.47623262  0.13664266  0.69883512     0.37600
N381        N  0.46806302  0.17165438  0.71523272    -0.89000
H382        H  0.47327745  0.09538705  0.73067524     0.18700
H383        H  0.49364472  0.10738813  0.63518879     0.18700
N384        N  0.49262202  0.03178182  0.65015344    -0.88000
H385        H  0.46387813  0.16363265  0.73466259     0.36100
H386        H  0.44137043  0.18548148  0.70868408     0.41200
H387        H  0.46643627  0.01697713  0.65092821     0.40800
H388        H  0.49595800  0.03948745  0.63058587     0.35700
C389        C  0.54255575  0.27964547  0.47932145    -0.26100
C390        C  0.57715896  0.27865804  0.49487445    -0.14100
C391        C  0.61410365  0.27549196  0.48228098     0.36500
C392        C  0.61550730  0.27473032  0.45484426    -0.25500
C393        C  0.58095777  0.27649165  0.43936842    -0.14800
C394        C  0.54403508  0.27872140  0.45185060     0.37600
N395        N  0.50761970  0.28174488  0.43725830    -0.89000
H396        H  0.51401653  0.28186177  0.48859490     0.18700
H397        H  0.64399149  0.27249489  0.44548624     0.18700
N398        N  0.65069441  0.27134267  0.49660168    -0.88000
H399        H  0.50537906  0.25572229  0.42573092     0.36100
H400        H  0.50788633  0.30636550  0.42496640     0.41200
H401        H  0.64951408  0.24770842  0.50961681     0.40800
H402        H  0.65502665  0.29791481  0.50708758     0.35700
C403        C  0.97365272  0.47928503  0.25475107    -0.26100
C404        C  0.93844765  0.47875628  0.23964435    -0.14100
C405        C  0.94044105  0.48947269  0.21305551     0.36500
C406        C  0.97731363  0.49474211  0.20190992    -0.25500
C407        C  0.01284281  0.48469876  0.21557663    -0.14800
C408        C  0.01063152  0.47940885  0.24298825     0.37600
N409        N  0.04451425  0.46998337  0.25920344    -0.89000
H410        H  0.97301285  0.47377654  0.27561170     0.18700
H411        H  0.97814891  0.50037030  0.18105548     0.18700
N412        N  0.90628141  0.49136938  0.19635608    -0.88000
H413        H  0.06156914  0.49481592  0.26037280     0.36100
H414        H  0.06056579  0.44505493  0.25115349     0.41200
H415        H  0.91070196  0.47035960  0.18097361     0.40800
H416        H  0.90333268  0.51993757  0.18833623     0.35700
C417        C  0.80085110  0.37856683  0.24902954    -0.26100
C418        C  0.80937582  0.41679446  0.25859930    -0.14100
C419        C  0.78088405  0.43970236  0.27320520     0.36500
C420        C  0.74491531  0.42304785  0.27889587    -0.25500
C421        C  0.73713789  0.38389801  0.27037747    -0.14800
C422        C  0.76524525  0.36172131  0.25482815     0.37600
N423        N  0.75885262  0.32120486  0.24642115    -0.89000
H424        H  0.82324652  0.36078902  0.23828311     0.18700
H425        H  0.72343206  0.44009546  0.29081268     0.18700
N426        N  0.78930338  0.47889315  0.28322839    -0.88000
H427        H  0.75879258  0.30375965  0.26320855     0.36100
H428        H  0.78218704  0.30934831  0.23497454     0.41200
H429        H  0.81270717  0.47541711  0.29677431     0.40800
H430        H  0.76528655  0.49182851  0.29354315     0.35700
C431        C  0.79781984  0.50133041  0.19296757    -0.26100
C432        C  0.79212435  0.54142247  0.20162966    -0.14100
C433        C  0.81299429  0.55454777  0.22419334     0.36500
C434        C  0.83821693  0.52696424  0.23797154    -0.25500
C435        C  0.84273872  0.48669470  0.22969377    -0.14800
C436        C  0.82260267  0.47393210  0.20692193     0.37600
N437        N  0.82821294  0.43324610  0.19760769    -0.89000
H438        H  0.78231964  0.49096117  0.17558265     0.18700
H439        H  0.85387831  0.53656341  0.25547579     0.18700
N440        N  0.80884370  0.59582870  0.23284884    -0.88000
H441        H  0.83923570  0.43350499  0.17858218     0.36100
H442        H  0.80065876  0.42095774  0.19654071     0.41200
H443        H  0.82003023  0.61309699  0.21820373     0.40800
H444        H  0.82608030  0.60048554  0.24974349     0.35700
C445        C  0.66298602  0.68939857  0.97143295    -0.26100
C446        C  0.67174579  0.65237196  0.95850499    -0.14100
C447        C  0.67920458  0.61772357  0.97366069     0.36500
C448        C  0.67874839  0.62114129  0.00122467    -0.25500
C449        C  0.67018620  0.65818159  0.01417057    -0.14800
C450        C  0.66234243  0.69278142  0.99901767     0.37600
N451        N  0.65473707  0.73140458  0.01156750    -0.89000
H452        H  0.65742289  0.71611251  0.95995724     0.18700
H453        H  0.68419173  0.59438579  0.01267180     0.18700
N454        N  0.68606697  0.57897470  0.96113258    -0.88000
H455        H  0.64915809  0.75360954  0.99762223     0.36100
H456        H  0.68043715  0.73856876  0.02174039     0.41200
H457        H  0.66015068  0.57226355  0.95105782     0.40800
H458        H  0.69134854  0.55671744  0.97508246     0.35700
C459        C  0.39596357  0.88944976  0.72498915    -0.26100
C460        C  0.41162143  0.86407704  0.74484611    -0.14100
C461        C  0.44365557  0.87669065  0.76028979     0.36500
C462        C  0.46066200  0.91283846  0.75438005    -0.25500
C463        C  0.44542299  0.93733667  0.73407698    -0.14800
C464        C  0.41247057  0.92572400  0.71943243     0.37600
N465        N  0.39720774  0.94964914  0.69800665    -0.89000
H466        H  0.37148007  0.88018188  0.71289660     0.18700
H467        H  0.48650260  0.92163870  0.76529682     0.18700
N468        N  0.45866094  0.85326630  0.78192476    -0.88000
H469        H  0.37266145  0.93704531  0.68928502     0.36100
H470        H  0.41884867  0.94909942  0.68363073     0.41200
H471        H  0.43637070  0.85314883  0.79579183     0.40800
H472        H  0.48246338  0.86662879  0.79109994     0.35700
C473        C  0.48268076  0.77419581  0.74278125    -0.26100
C474        C  0.44852533  0.77489195  0.75793235    -0.14100
C475        C  0.45127982  0.76016606  0.78382294     0.36500
C476        C  0.48738200  0.74340317  0.79329374    -0.25500
C477        C  0.52120086  0.74087382  0.77778793    -0.14800
C478        C  0.51892258  0.75716034  0.75247314     0.37600
N479        N  0.55342807  0.75707027  0.73675653    -0.89000
H480        H  0.48092518  0.78610191  0.72317571     0.18700
H481        H  0.48868414  0.73144564  0.81290053     0.18700
N482        N  0.41809241  0.76156139  0.80105306    -0.88000
H483        H  0.55817755  0.78678572  0.73234302     0.36100
H484        H  0.54777442  0.74163936  0.71913419     0.41200
H485        H  0.39307312  0.77579914  0.79255710     0.40800
H486        H  0.42510582  0.77929695  0.81747178     0.35700
C487        C  0.41730323  0.70876348  0.71414626    -0.26100
C488        C  0.38772785  0.71973331  0.73230177    -0.14100
C489        C  0.36007143  0.69159869  0.73831381     0.36500
C490        C  0.35980822  0.65518793  0.72393357    -0.25500
C491        C  0.38719484  0.64578754  0.70400500    -0.14800
C492        C  0.41772776  0.67198754  0.70031655     0.37600
N493        N  0.44985871  0.66198410  0.68305270    -0.89000
H494        H  0.43885039  0.72980402  0.70931855     0.18700
H495        H  0.33686219  0.63498780  0.72754029     0.18700
N496        N  0.33152507  0.70073886  0.75842102    -0.88000
H497        H  0.43941447  0.66053105  0.66375172     0.36100
H498        H  0.46271295  0.63389675  0.68812546     0.41200
H499        H  0.34693375  0.70344195  0.77623220     0.40800
H500        H  0.31312461  0.67701823  0.76034658     0.35700
C501        C  0.90569440  0.41473629  0.76918755    -0.26100
C502        C  0.89005082  0.39203519  0.74847711    -0.14100
C503        C  0.91112578  0.38699831  0.72474606     0.36500
C504        C  0.94747839  0.40370486  0.72243703    -0.25500
C505        C  0.96305337  0.42664261  0.74293941    -0.14800
C506        C  0.94171460  0.43300084  0.76638489     0.37600
N507        N  0.95681427  0.45771941  0.78722597    -0.89000
H508        H  0.88962790  0.41852366  0.78734788     0.18700
H509        H  0.96288160  0.40030754  0.70397788     0.18700
N510        N  0.89570003  0.36616740  0.70229300    -0.88000
H511        H  0.93812651  0.45851343  0.80332488     0.36100
H512        H  0.95652727  0.48710289  0.78054038     0.41200
H513        H  0.86786740  0.37929694  0.69763460     0.40800
H514        H  0.89298962  0.33612113  0.70680158     0.35700
C515        C  0.73093015  0.32504369  0.73149486    -0.26100
C516        C  0.75665817  0.35467714  0.72550244    -0.14100
C517        C  0.74649458  0.38126322  0.70494463     0.36500
C518        C  0.71148705  0.37668187  0.69037176    -0.25500
C519        C  0.68671203  0.34584124  0.69558395    -0.14800
C520        C  0.69631874  0.31998674  0.71666121     0.37600
N521        N  0.67218418  0.28740563  0.72216388    -0.89000
H522        H  0.73877292  0.30458418  0.74720513     0.18700
H523        H  0.70407933  0.39655566  0.67427457     0.18700
N524        N  0.77253298  0.41148293  0.69799515    -0.88000
H525        H  0.68318834  0.27164348  0.73846694     0.36100
H526        H  0.67403563  0.26724459  0.70614801     0.41200
H527        H  0.79819861  0.39679388  0.69062335     0.40800
H528        H  0.76028450  0.42898037  0.68283159     0.35700
C529        C  0.76707363  0.42115015  0.77338110    -0.26100
C530        C  0.79809184  0.42305154  0.75563275    -0.14100
C531        C  0.80905928  0.46098391  0.74794994     0.36500
C532        C  0.78918529  0.49607520  0.75828491    -0.25500
C533        C  0.75823014  0.49393893  0.77608319    -0.14800
C534        C  0.74669556  0.45575217  0.78339153     0.37600
N535        N  0.71437575  0.45065011  0.80066329    -0.89000
H536        H  0.75831520  0.39214463  0.77941661     0.18700
H537        H  0.79815865  0.52514211  0.75251807     0.18700
N538        N  0.83957536  0.46402308  0.72924451    -0.88000
H539        H  0.69340126  0.43489155  0.79013265     0.36100
H540        H  0.70009538  0.47797140  0.80624097     0.41200
H541        H  0.86143667  0.48091836  0.73790075     0.40800
H542        H  0.82763757  0.47979409  0.71320340     0.35700
C543        C  0.46134810  0.94609691  0.22470182    -0.26100
C544        C  0.49113729  0.92223338  0.23709421    -0.14100
C545        C  0.53093348  0.92785368  0.23156908     0.36500
C546        C  0.53989184  0.95728836  0.21344603    -0.25500
C547        C  0.50978172  0.98159275  0.20148094    -0.14800
C548        C  0.46995159  0.97566010  0.20716943     0.37600
N549        N  0.43728697  0.99893636  0.19566926    -0.89000
H550        H  0.43072111  0.94205953  0.22900596     0.18700
H551        H  0.57030636  0.96132450  0.20863300     0.18700
N552        N  0.56188040  0.90428207  0.24457474    -0.88000
H553        H  0.42158163  0.97964100  0.18356640     0.36100
H554        H  0.44620620  0.02168228  0.18388041     0.41200
H555        H  0.56050814  0.91139416  0.26464054     0.40800
H556        H  0.58945354  0.91219264  0.23834545     0.35700
C557        C  0.49728118  0.82547390  0.21353477    -0.26100
C558        C  0.50715352  0.82940644  0.24022016    -0.14100
C559        C  0.54130035  0.80833623  0.25013740     0.36500
C560        C  0.56437312  0.78350504  0.23318322    -0.25500
C561        C  0.55441475  0.77859793  0.20640081    -0.14800
C562        C  0.51992968  0.79966363  0.19659301     0.37600
N563        N  0.50714895  0.79406583  0.16982291    -0.89000
H564        H  0.47092006  0.84166551  0.20618945     0.18700
H565        H  0.59075827  0.76838013  0.24125446     0.18700
N566        N  0.55385054  0.81177441  0.27716290    -0.88000
H567        H  0.48170111  0.81218568  0.16579356     0.36100
H568        H  0.49933614  0.76434550  0.16754987     0.41200
H569        H  0.53539849  0.83208825  0.28780680     0.40800
H570        H  0.58153771  0.82373218  0.27751168     0.35700
C571        C  0.43803956  0.77506897  0.26039925    -0.26100
C572        C  0.44792714  0.80066981  0.28142160    -0.14100
C573        C  0.44134421  0.78864712  0.30726723     0.36500
C574        C  0.42141985  0.75379399  0.31140881    -0.25500
C575        C  0.40876597  0.72948457  0.29036498    -0.14800
C576        C  0.41918459  0.73952149  0.26455339     0.37600
N577        N  0.41182236  0.71423973  0.24215882    -0.89000
H578        H  0.44291589  0.78359310  0.24042880     0.18700
H579        H  0.41470384  0.74648738  0.33134822     0.18700
N580        N  0.45416491  0.81250248  0.32929513    -0.88000
H581        H  0.38159503  0.71499497  0.23819749     0.36100
H582        H  0.42235933  0.68494066  0.24617531     0.41200
H583        H  0.48493050  0.81206420  0.32887925     0.40800
H584        H  0.44692578  0.79976343  0.34700032     0.35700
loop_ 
_geom_bond_atom_site_label_1 
_geom_bond_atom_site_label_2 
_geom_bond_distance 
_geom_bond_site_symmetry_2 
_ccdc_geom_bond_type 
N1            C5   1.358       .  A
N1            C2   1.361       .  A
N1          C558   1.439       .  S
C2            C3   1.384       .  A
C2          C572   1.492       .  S
C3            C4   1.371       .  A
C3            H6   1.082       .  S
C4            C5   1.381       .  A
C4            H7   1.082       .  S
C5          C544   1.482       .  S
N8           C12   1.362       .  A
N8            C9   1.359       .  A
N8          C530   1.450       .  S
C9           C10   1.380       .  A
C9          C516   1.486       .  S
C10          C11   1.369       .  A
C10          H13   1.082       .  S
C11          C12   1.383       .  A
C11          H14   1.083       .  S
C12         C502   1.479       .  S
N15          C19   1.365       .  A
N15          C16   1.360       .  A
N15         C474   1.443       .  S
C16          C17   1.381       .  A
C16         C488   1.489       .  S
C17          C18   1.370       .  A
C17          H20   1.082       .  S
C18          C19   1.387       .  A
C18          H21   1.082       .  S
C19         C460   1.495       .  S
N22          C26   1.347       .  A
N22          N23   1.321       .  A
N22         Cu30   2.082       .  S
N23          C24   1.345       .  A
N23         Cu29   2.072       .  S
C24          C25   1.385       .  A
C24          H27   1.082       .  S
C25          C26   1.387       .  A
C25         C432   1.485       .  S
C26          H28   1.082       .  S
Cu29         N32   2.072       .  S
Cu30         N40   2.082       .  S
Cu31         N33   2.086       .  S
Cu31         N39   2.086       .  S
N32          C36   1.342       .  A
N32          N33   1.320       .  A
N33          C34   1.348       .  A
C34          C35   1.394       .  A
C34          H37   1.080       .  S
C35          C36   1.389       .  A
C35         C561   1.498       .  S
C36          H38   1.081       .  S
N39          C43   1.347       .  A
N39          N40   1.323       .  A
N40          C41   1.345       .  A
C41          C42   1.386       .  A
C41          H44   1.082       .  S
C42          C43   1.389       .  A
C42         C449   1.490       .  S
C43          H45   1.081       .  S
N46          C50   1.343       .  A
N46          N47   1.323       .  A
N46         Cu54   2.070       .  S
N47          C48   1.352       .  A
N47         Cu53   2.106       .  S
C48          C49   1.392       .  A
C48          H51   1.082       .  S
C49          C50   1.383       .  A
C49         C477   1.488       .  S
C50          H52   1.082       .  S
Cu53         N56   2.106       .  S
Cu54         N64   2.069       .  S
Cu55         N57   2.079       .  S
Cu55         N63   2.078       .  S
N56          C60   1.352       .  A
N56          N57   1.325       .  A
N57          C58   1.345       .  A
C58          C59   1.382       .  A
C58          H61   1.082       .  S
C59          C60   1.388       .  A
C59         C533   1.483       .  S
C60          H62   1.082       .  S
N63          C67   1.346       .  A
N63          N64   1.320       .  A
N64          C65   1.345       .  A
C65          C66   1.387       .  A
C65          H68   1.082       .  S
C66          C67   1.390       .  A
C66         C446   1.490       .  S
C67          H69   1.081       .  S
N70          C74   1.371       .  A
N70          C71   1.361       .  A
N70         C435   1.440       .  S
C71          C72   1.374       .  A
C71         C418   1.481       .  S
C72          C73   1.366       .  A
C72          H75   1.082       .  S
C73          C74   1.392       .  A
C73          H76   1.082       .  S
C74         C404   1.510       .  S
N77          C81   1.344       .  A
N77          N78   1.319       .  A
N77         Cu85   2.073       .  S
N78          C79   1.342       .  A
N78         Cu84   2.057       .  S
C79          C80   1.386       .  A
C79          H82   1.081       .  S
C80          C81   1.391       .  A
C80         C379   1.490       .  S
C81          H83   1.081       .  S
Cu84         N87   2.057       .  S
Cu85         N95   2.074       .  S
Cu86         N88   2.084       .  S
Cu86         N94   2.085       .  S
N87          C91   1.342       .  A
N87          N88   1.321       .  A
N88          C89   1.346       .  A
C89          C90   1.389       .  A
C89          H92   1.082       .  S
C90          C91   1.383       .  A
C90         C519   1.483       .  S
C91          H93   1.081       .  S
N94          C98   1.345       .  A
N94          N95   1.323       .  A
N95          C96   1.344       .  A
C96          C97   1.384       .  A
C96          H99   1.082       .  S
C97          C98   1.388       .  A
C97         C390   1.485       .  S
C98         H100   1.079       .  S
N101        C105   1.348       .  A
N101        N102   1.321       .  A
N101       Cu109   2.082       .  S
N102        C103   1.345       .  A
N102       Cu108   2.081       .  S
C103        C104   1.387       .  A
C103        H106   1.082       .  S
C104        C105   1.387       .  A
C104        C421   1.488       .  S
C105        H107   1.082       .  S
Cu108       N111   2.081       .  S
Cu109       N119   2.082       .  S
Cu110       N112   2.082       .  S
Cu110       N118   2.082       .  S
N111        C115   1.344       .  A
N111        N112   1.322       .  A
N112        C113   1.349       .  A
C113        C114   1.388       .  A
C113        H116   1.082       .  S
C114        C115   1.386       .  A
C114        C365   1.488       .  S
C115        H117   1.082       .  S
N118        C122   1.347       .  A
N118        N119   1.324       .  A
N119        C120   1.345       .  A
C120        C121   1.384       .  A
C120        H123   1.082       .  S
C121        C122   1.385       .  A
C121        C393   1.480       .  S
C122        H124   1.081       .  S
N125        C129   1.356       .  A
N125        C126   1.354       .  A
N125        C362   1.440       .  S
C126        C127   1.381       .  A
C126        C348   1.482       .  S
C127        C128   1.378   1_545  A
C127        H130   1.082       .  S
C128        C129   1.385   1_565  A
C128        H131   1.082       .  S
C129        C547   1.477   1_545  S
N132        C136   1.360   1_455  A
N132        C133   1.356       .  A
N132        C334   1.447       .  S
C133        C134   1.381       .  A
C133        C323   1.479       .  S
C134        C135   1.374   1_455  A
C134        H137   1.082       .  S
C135        C136   1.383       .  A
C135        H138   1.082       .  S
C136        C505   1.475       .  S
N139        C143   1.362   1_545  A
N139        C140   1.357       .  A
N139        C309   1.448       .  S
C140        C141   1.382   1_545  A
C140        C376   1.480       .  S
C141        C142   1.373       .  A
C141        H144   1.082       .  S
C142        C143   1.382       .  A
C142        H145   1.082       .  S
C143        C463   1.478       .  S
N146        C150   1.345       .  A
N146        N147   1.322       .  A
N146       Cu154   2.074       .  S
N147        C148   1.346       .  A
N147       Cu153   2.085       .  S
C148        C149   1.390       .  A
C148        H151   1.081       .  S
C149        C150   1.386       .  A
C149        C351   1.491       .  S
C150        H152   1.082       .  S
Cu153       N156   2.085       .  S
Cu154       N164   2.074       .  S
Cu155       N157   2.072       .  S
Cu155       N163   2.072       .  S
N156        C160   1.348       .  A
N156        N157   1.322       .  A
N157        C158   1.344       .  A
C158        C159   1.383       .  A
C158        H161   1.082       .  S
C159        C160   1.388       .  A
C159        C278   1.484       .  S
C160        H162   1.080       .  S
N163        C167   1.345       .  A
N163        N164   1.321       .  A
N164        C165   1.344       .  A
C165        C166   1.386   1_554  A
C165        H168   1.082       .  S
C166        C167   1.387   1_556  A
C166        C295   1.484       .  S
C167        H169   1.079       .  S
N170        C174   1.338       .  A
N170        N171   1.324       .  A
N170       Cu178   2.067       .  S
N171        C172   1.357       .  A
N171       Cu177   2.124       .  S
C172        C173   1.400       .  A
C172        H175   1.081       .  S
C173        C174   1.383       .  A
C173        C306   1.502       .  S
C174        H176   1.081       .  S
Cu177       N180   2.123       .  S
Cu178       N188   2.066       .  S
Cu179       N181   2.059       .  S
Cu179       N187   2.058       .  S
N180        C184   1.355       .  A
N180        N181   1.322       .  A
N181        C182   1.339       .  A
C182        C183   1.384       .  A
C182        H185   1.082       .  S
C183        C184   1.400       .  A
C183        C337   1.501       .  S
C184        H186   1.079       .  S
N187        C191   1.342       .  A
N187        N188   1.317       .  A
N188        C189   1.346       .  A
C189        C190   1.388       .  A
C189        H192   1.081       .  S
C190        C191   1.384       .  A
C190        C292   1.480       .  S
C191        H193   1.082       .  S
N194        C198   1.368       .  A
N194        C195   1.361       .  A
N194        C264   1.443       .  S
C195        C196   1.374       .  A
C195        C281   1.478       .  S
C196        C197   1.367       .  A
C196        H199   1.082       .  S
C197        C198   1.390       .  A
C197        H200   1.083       .  S
C198        C407   1.501       .  S
N201        C205   1.343       .  A
N201        N202   1.321       .  A
N201       Cu209   2.073       .  S
N202        C203   1.344       .  A
N202       Cu208   2.066       .  S
C203        C204   1.386       .  A
C203        H206   1.081       .  S
C204        C205   1.388       .  A
C204        C320   1.485       .  S
C205        H207   1.082       .  S
Cu208       N211   2.066       .  S
Cu209       N219   2.074       .  S
Cu210       N212   2.086       .  S
Cu210       N218   2.086       .  S
N211        C215   1.344       .  A
N211        N212   1.321       .  A
N212        C213   1.345       .  A
C213        C214   1.390       .  A
C213        H216   1.080       .  S
C214        C215   1.387       .  A
C214        C491   1.488       .  S
C215        H217   1.082       .  S
N218        C222   1.347       .  A
N218        N219   1.323       .  A
N219        C220   1.346       .  A
C220        C221   1.383       .  A
C220        H223   1.082       .  S
C221        C222   1.385       .  A
C221        C250   1.480       .  S
C222        H224   1.082       .  S
N225        C229   1.343       .  A
N225        N226   1.322       .  A
N225       Cu233   2.080       .  S
N226        C227   1.348       .  A
N226       Cu232   2.092       .  S
C227        C228   1.394       .  A
C227        H230   1.078       .  S
C228        C229   1.390       .  A
C228        C575   1.498       .  S
C229        H231   1.081       .  S
Cu232       N235   2.092       .  S
Cu233       N243   2.080       .  S
Cu234       N236   2.074       .  S
Cu234       N242   2.073       .  S
N235        C239   1.349       .  A
N235        N236   1.324       .  A
N236        C237   1.344       .  A
C237        C238   1.382       .  A
C237        H240   1.082       .  S
C238        C239   1.386       .  A
C238        C267   1.480       .  S
C239        H241   1.082       .  S
N242        C246   1.346       .  A
N242        N243   1.320       .  A
N243        C244   1.346       .  A
C244        C245   1.387       .  A
C244        H247   1.082       .  S
C245        C246   1.387       .  A
C245        C253   1.486       .  S
C246        H248   1.080       .  S
C249        C250   1.403       .  A
C249        C254   1.402       .  A
C249        H256   1.084       .  S
C250        C251   1.412       .  A
C251        C252   1.400       .  A
C251        N258   1.432       .  S
C252        C253   1.405       .  A
C252        H257   1.084       .  S
C253        C254   1.418       .  A
C254        N255   1.432       .  S
N255        H259   1.040       .  S
N255        H260   1.048       .  S
N258        H261   1.045       .  S
N258        H262   1.044       .  S
C263        C264   1.403       .  A
C263        C268   1.395       .  A
C263        H270   1.083       .  S
C264        C265   1.410       .  A
C265        C266   1.412       .  A
C265        N272   1.436       .  S
C266        C267   1.406       .  A
C266        H271   1.084       .  S
C267        C268   1.412       .  A
C268        N269   1.433       .  S
N269        H273   1.045       .  S
N269        H274   1.045       .  S
N272        H275   1.044       .  S
N272        H276   1.047       .  S
C277        C278   1.407       .  A
C277        C282   1.406       .  A
C277        H284   1.084       .  S
C278        C279   1.417       .  A
C279        C280   1.399       .  A
C279        N286   1.432       .  S
C280        C281   1.401       .  A
C280        H285   1.084       .  S
C281        C282   1.404       .  A
C282        N283   1.432       .  S
N283        H287   1.046       .  S
N283        H288   1.045       .  S
N286        H289   1.043       .  S
N286        H290   1.046       .  S
C291        C292   1.403       .  A
C291        C296   1.398       .  A
C291        H298   1.084       .  S
C292        C293   1.413       .  A
C293        C294   1.400       .  A
C293        N300   1.432       .  S
C294        C295   1.405       .  A
C294        H299   1.084       .  S
C295        C296   1.417       .  A
C296        N297   1.432       .  S
N297        H301   1.042       .  S
N297        H302   1.046       .  S
N300        H303   1.046       .  S
N300        H304   1.043       .  S
C305        C306   1.409       .  A
C305        C310   1.402       .  A
C305        H312   1.082       .  S
C306        C307   1.412       .  A
C307        C308   1.411       .  A
C307        N314   1.431       .  S
C308        C309   1.408       .  A
C308        H313   1.083       .  S
C309        C310   1.416       .  A
C310        N311   1.439       .  S
N311        H315   1.044       .  S
N311        H316   1.042       .  S
N314        H317   1.046       .  S
N314        H318   1.046       .  S
C319        C320   1.405       .  A
C319        C324   1.400       .  A
C319        H326   1.082       .  S
C320        C321   1.415       .  A
C321        C322   1.407       .  A
C321        N328   1.437       .  S
C322        C323   1.402       .  A
C322        H327   1.083       .  S
C323        C324   1.408       .  A
C324        N325   1.438       .  S
N325        H329   1.045       .  S
N325        H330   1.046       .  S
N328        H331   1.045       .  S
N328        H332   1.046       .  S
C333        C334   1.406       .  A
C333        C338   1.413       .  A
C333        H340   1.083       .  S
C334        C335   1.407       .  A
C335        C336   1.406       .  A
C335        N342   1.437       .  S
C336        C337   1.410       .  A
C336        H341   1.083       .  S
C337        C338   1.416       .  A
C338        N339   1.435       .  S
N339        H343   1.045       .  S
N339        H344   1.045       .  S
N342        H345   1.046       .  S
N342        H346   1.046       .  S
C347        C348   1.401       .  A
C347        C352   1.406       .  A
C347        H354   1.083       .  S
C348        C349   1.406       .  A
C349        C350   1.408       .  A
C349        N356   1.437       .  S
C350        C351   1.408       .  A
C350        H355   1.083       .  S
C351        C352   1.416       .  A
C352        N353   1.437       .  S
N353        H357   1.046       .  S
N353        H358   1.045       .  S
N356        H359   1.045       .  S
N356        H360   1.046       .  S
C361        C362   1.402       .  A
C361        C366   1.412       .  A
C361        H368   1.083       .  S
C362        C363   1.414       .  A
C363        C364   1.399       .  A
C363        N370   1.438       .  S
C364        C365   1.403       .  A
C364        H369   1.084       .  S
C365        C366   1.415       .  A
C366        N367   1.437       .  S
N367        H371   1.046       .  S
N367        H372   1.045       .  S
N370        H373   1.043       .  S
N370        H374   1.045       .  S
C375        C376   1.401       .  A
C375        C380   1.407       .  A
C375        H382   1.083       .  S
C376        C377   1.408       .  A
C377        C378   1.401       .  A
C377        N384   1.438       .  S
C378        C379   1.406       .  A
C378        H383   1.081       .  S
C379        C380   1.417       .  A
C380        N381   1.437       .  S
N381        H385   1.046       .  S
N381        H386   1.045       .  S
N384        H387   1.046       .  S
N384        H388   1.045       .  S
C389        C390   1.406       .  A
C389        C394   1.401       .  A
C389        H396   1.084       .  S
C390        C391   1.417       .  A
C391        C392   1.399       .  A
C391        N398   1.432       .  S
C392        C393   1.402       .  A
C392        H397   1.084       .  S
C393        C394   1.414       .  A
C394        N395   1.432       .  S
N395        H399   1.044       .  S
N395        H400   1.046       .  S
N398        H401   1.046       .  S
N398        H402   1.042       .  S
C403        C404   1.412       .  A
C403        C408   1.402   1_655  A
C403        H410   1.084       .  S
C404        C405   1.413       .  A
C405        C406   1.407       .  A
C405        N412   1.427       .  S
C406        C407   1.410   1_655  A
C406        H411   1.085       .  S
C407        C408   1.416       .  A
C408        N409   1.429       .  S
N409        H413   1.041       .  S
N409        H414   1.046       .  S
N412        H415   1.046       .  S
N412        H416   1.045       .  S
C417        C418   1.401       .  A
C417        C422   1.404       .  A
C417        H424   1.084       .  S
C418        C419   1.408       .  A
C419        C420   1.411       .  A
C419        N426   1.437       .  S
C420        C421   1.407       .  A
C420        H425   1.083       .  S
C421        C422   1.414       .  A
C422        N423   1.438       .  S
N423        H427   1.046       .  S
N423        H428   1.045       .  S
N426        H429   1.047       .  S
N426        H430   1.044       .  S
C431        C432   1.403       .  A
C431        C436   1.402       .  A
C431        H438   1.084       .  S
C432        C433   1.416       .  A
C433        C434   1.410       .  A
C433        N440   1.437       .  S
C434        C435   1.400       .  A
C434        H439   1.083       .  S
C435        C436   1.408       .  A
C436        N437   1.431       .  S
N437        H441   1.046       .  S
N437        H442   1.045       .  S
N440        H443   1.044       .  S
N440        H444   1.047       .  S
C445        C446   1.405       .  A
C445        C450   1.408       .  A
C445        H452   1.083       .  S
C446        C447   1.414       .  A
C447        C448   1.407   1_556  A
C447        N454   1.437       .  S
C448        C449   1.405       .  A
C448        H453   1.083       .  S
C449        C450   1.414   1_554  A
C450        N451   1.437   1_556  S
N451        H455   1.046   1_554  S
N451        H456   1.046       .  S
N454        H457   1.045       .  S
N454        H458   1.046       .  S
C459        C460   1.411       .  A
C459        C464   1.403       .  A
C459        H466   1.083       .  S
C460        C461   1.412       .  A
C461        C462   1.411       .  A
C461        N468   1.435       .  S
C462        C463   1.406       .  A
C462        H467   1.084       .  S
C463        C464   1.405       .  A
C464        N465   1.439       .  S
N465        H469   1.045       .  S
N465        H470   1.046       .  S
N468        H471   1.045       .  S
N468        H472   1.046       .  S
C473        C474   1.404       .  A
C473        C478   1.411       .  A
C473        H480   1.083       .  S
C474        C475   1.418       .  A
C475        C476   1.400       .  A
C475        N482   1.439       .  S
C476        C477   1.403       .  A
C476        H481   1.084       .  S
C477        C478   1.410       .  A
C478        N479   1.431       .  S
N479        H483   1.045       .  S
N479        H484   1.046       .  S
N482        H485   1.041       .  S
N482        H486   1.046       .  S
C487        C488   1.404       .  A
C487        C492   1.401       .  A
C487        H494   1.081       .  S
C488        C489   1.411       .  A
C489        C490   1.405       .  A
C489        N496   1.438       .  S
C490        C491   1.406       .  A
C490        H495   1.083       .  S
C491        C492   1.416       .  A
C492        N493   1.433       .  S
N493        H497   1.041       .  S
N493        H498   1.046       .  S
N496        H499   1.045       .  S
N496        H500   1.046       .  S
C501        C502   1.402       .  A
C501        C506   1.412       .  A
C501        H508   1.083       .  S
C502        C503   1.417       .  A
C503        C504   1.394       .  A
C503        N510   1.434       .  S
C504        C505   1.397       .  A
C504        H509   1.084       .  S
C505        C506   1.413       .  A
C506        N507   1.437       .  S
N507        H511   1.045       .  S
N507        H512   1.046       .  S
N510        H513   1.044       .  S
N510        H514   1.044       .  S
C515        C516   1.402       .  A
C515        C520   1.404       .  A
C515        H522   1.084       .  S
C516        C517   1.413       .  A
C517        C518   1.406       .  A
C517        N524   1.437       .  S
C518        C519   1.403       .  A
C518        H523   1.084       .  S
C519        C520   1.415       .  A
C520        N521   1.438       .  S
N521        H525   1.045       .  S
N521        H526   1.046       .  S
N524        H527   1.045       .  S
N524        H528   1.045       .  S
C529        C530   1.406       .  A
C529        C534   1.400       .  A
C529        H536   1.083       .  S
C530        C531   1.408       .  A
C531        C532   1.412       .  A
C531        N538   1.430       .  S
C532        C533   1.407       .  A
C532        H537   1.084       .  S
C533        C534   1.417       .  A
C534        N535   1.440       .  S
N535        H539   1.045       .  S
N535        H540   1.043       .  S
N538        H541   1.046       .  S
N538        H542   1.045       .  S
C543        C544   1.400       .  A
C543        C548   1.394       .  A
C543        H550   1.084       .  S
C544        C545   1.411       .  A
C545        C546   1.414       .  A
C545        N552   1.436       .  S
C546        C547   1.406       .  A
C546        H551   1.084       .  S
C547        C548   1.416       .  A
C548        N549   1.440       .  S
N549        H553   1.045       .  S
N549        H554   1.042   1_565  S
N552        H555   1.045       .  S
N552        H556   1.046       .  S
C557        C558   1.400       .  A
C557        C562   1.410       .  A
C557        H564   1.083       .  S
C558        C559   1.412       .  A
C559        C560   1.400       .  A
C559        N566   1.439       .  S
C560        C561   1.409       .  A
C560        H565   1.081       .  S
C561        C562   1.419       .  A
C562        N563   1.436       .  S
N563        H567   1.045       .  S
N563        H568   1.046       .  S
N566        H569   1.044       .  S
N566        H570   1.044       .  S
C571        C572   1.404       .  A
C571        C576   1.405       .  A
C571        H578   1.081       .  S
C572        C573   1.411       .  A
C573        C574   1.404       .  A
C573        N580   1.438       .  S
C574        C575   1.407       .  A
C574        H579   1.082       .  S
C575        C576   1.421       .  A
C576        N577   1.431       .  S
N577        H581   1.042       .  S
N577        H582   1.045       .  S
N580        H583   1.045       .  S
N580        H584   1.046       .  S
