geometry optimzed in LAMMPS
_audit_creation_date              2020-11-30 
_audit_creation_method            'lammps2cif' 
_symmetry_space_group_name_H-M    'P1' 
_symmetry_Int_Tables_number       1 
_symmetry_cell_setting            triclinic 
loop_ 
_symmetry_equiv_pos_as_xyz 
  x,y,z 
_cell_length_a                    32.51202229 
_cell_length_b                    33.71707180901767 
_cell_length_c                    26.924454446374362 
_cell_angle_alpha                 90.09488023330378 
_cell_angle_beta                  117.50550590203692 
_cell_angle_gamma                 92.1070737329174 
loop_ 
_atom_site_label 
_atom_site_type_symbol 
_atom_site_fract_x 
_atom_site_fract_y 
_atom_site_fract_z 
_atom_site_charge 
C1          C  0.88358611  0.16785703  0.63232086     0.80800
N2          N  0.91601834  0.14956557  0.67808094    -0.77500
C3          C  0.90227675  0.12412538  0.70736405     0.83300
N4          N  0.85625182  0.11714051  0.69058693    -0.77400
C5          C  0.82400939  0.13538840  0.64541608     0.83400
N6          N  0.83781350  0.16051652  0.61612172    -0.79100
Zr7        Zr  0.45838910  0.09920249  0.48706940     2.17500
O8          O  0.44464554  0.02837941  0.49488141    -0.50700
O9          O  0.37730928  0.11701439  0.43452640    -0.73900
O10         O  0.43070476  0.08723210  0.55515592    -0.80700
O11         O  0.48090681  0.08156028  0.36161132    -0.82400
O12         O  0.47625097  0.12235960  0.63572569    -0.78100
O13         O  0.43630300  0.05984769  0.40180129    -0.89700
O14         O  0.37779034  0.18351489  0.42077446    -0.75700
O15         O  0.45918971  0.16122541  0.53008857    -0.85200
O16         O  0.45616434  0.14835448  0.42275036    -0.84900
O17         O  0.52846958  0.10235981  0.57531567    -0.71600
O18         O  0.52678651  0.09050603  0.47652137    -0.83700
Zr19       Zr  0.59451643  0.20626424  0.54083474     2.26400
Zr20       Zr  0.52947544  0.16578663  0.61707559     2.06300
Zr21       Zr  0.52445123  0.14076095  0.41267582     2.10000
Zr22       Zr  0.45725241  0.21023213  0.46590337     1.78800
O23         O  0.56947774  0.10531188  0.37685421    -0.92500
O24         O  0.42120322  0.24512700  0.51404997    -0.40400
O25         O  0.52505361  0.20406529  0.45325531    -0.77000
O26         O  0.52713820  0.21610841  0.55312214    -0.95700
O27         O  0.59743486  0.15773723  0.60598390    -0.89000
O28         O  0.59404441  0.14428950  0.49866793    -0.91800
C29         C  0.35684381  0.14951531  0.41470041     1.01900
C30         C  0.44979703  0.05819236  0.36387792     1.14900
C31         C  0.44278833  0.09738912  0.60604682     1.05600
O32         O  0.48811577  0.20950828  0.64905603    -0.94000
O33         O  0.58609003  0.21840673  0.67583846    -0.89700
O34         O  0.62912477  0.23765677  0.63244626    -0.82900
C35         C  0.61948642  0.23888524  0.67345045     1.12300
O36         O  0.58741935  0.02701598  0.58566079    -0.96000
Zr37       Zr  0.59693223  0.09582908  0.56373081     1.88900
O38         O  0.67399191  0.18735983  0.57894814    -0.72600
O39         O  0.57500956  0.13848100  0.70958500    -0.51900
O40         O  0.64389209  0.08544338  0.66364510    -0.96500
O41         O  0.62183332  0.04976401  0.51399942    -0.53800
O42         O  0.67598885  0.12039776  0.58918647    -0.73100
C43         C  0.69530541  0.15483436  0.59148941     0.99200
O44         O  0.60552705  0.27779584  0.53666470    -0.61900
O45         O  0.47140389  0.16533559  0.32092380    -0.56700
O46         O  0.62106334  0.22096038  0.47270909    -0.93400
O47         O  0.57380796  0.18658355  0.39227207    -0.91800
O48         O  0.42332325  0.23642231  0.37153212    -0.92200
O49         O  0.46806380  0.28184191  0.46216125    -0.91000
C50         C  0.60751593  0.21134620  0.42137657     1.18100
H51         H  0.42909017  0.14468088  0.38671958     0.34000
H52         H  0.52936611  0.24213986  0.56945420     0.44900
H53         H  0.61986969  0.14240397  0.49049233     0.38400
H54         H  0.52724533  0.08134261  0.59899743     0.34900
H55         H  0.39302423  0.25617134  0.48369965     0.26700
H56         H  0.56381313  0.15154513  0.73377913     0.32600
H57         H  0.62142686  0.07697444  0.67722114     0.38500
H58         H  0.39136023  0.24305913  0.36307935     0.33000
H59         H  0.47772846  0.19442615  0.32395898     0.31800
H60         H  0.55121160  0.10626126  0.33558239     0.33500
H61         H  0.63505841  0.06688660  0.49462381     0.32500
H62         H  0.49764792  0.28558291  0.46026355     0.36500
H63         H  0.63800850  0.28211030  0.54342180     0.29200
H64         H  0.41233605  0.02538315  0.48919673     0.33500
H65         H  0.61930720  0.01747573  0.60653382     0.36300
H66         H  0.48357423  0.15592483  0.29559080     0.28900
H67         H  0.58637218  0.28433195  0.49683174     0.41800
H68         H  0.49208017  0.23617134  0.63611055     0.31800
H69         H  0.40922762  0.22395538  0.52999107     0.39500
H70         H  0.59269771  0.03808074  0.48344869     0.31300
H71         H  0.56380271  0.11043962  0.70651325     0.31400
H72         H  0.46430803  0.02233510  0.53479826     0.31600
C73         C  0.15089254  0.10088501  0.33403609     0.80800
N74         N  0.13207864  0.12708169  0.29143886    -0.77500
C75         C  0.16031369  0.15006356  0.27719694     0.83300
N76         N  0.20699306  0.14681188  0.30577899    -0.77400
C77         C  0.22606704  0.12117823  0.34854163     0.83400
N78         N  0.19787522  0.09818855  0.36222635    -0.79100
C79         C  0.64102734  0.26014411  0.31774830     0.80800
N80         N  0.61924787  0.28642462  0.27676985    -0.77500
C81         C  0.64384715  0.31026266  0.25866078     0.83300
N82         N  0.69093893  0.30784382  0.28237120    -0.77400
C83         C  0.71300917  0.28126162  0.32363953     0.83400
N84         N  0.68780269  0.25771399  0.34109420    -0.79100
Zr85       Zr  0.94824266  0.26613590  0.46441754     2.17500
O86         O  0.93484784  0.19428844  0.46139545    -0.50700
O87         O  0.86539875  0.28117957  0.41209678    -0.73900
O88         O  0.92940096  0.24299591  0.53764565    -0.80700
O89         O  0.97361947  0.25330499  0.33952863    -0.82400
O90         O  0.96991605  0.28197472  0.61554855    -0.78100
O91         O  0.92787954  0.23023742  0.37743425    -0.89700
O92         O  0.87670235  0.00053644  0.42616465    -0.75700
O93         O  0.94096702  0.32739189  0.50321599    -0.85200
O94         O  0.94503595  0.31534423  0.39990018    -0.84900
O95         O  0.01785561  0.27339974  0.55275054    -0.71600
O96         O  0.02012838  0.26247770  0.45903221    -0.83700
Zr97       Zr  0.09580804  0.03367922  0.54521322     2.26400
Zr98       Zr  0.00987545  0.33508286  0.59120423     2.06300
Zr99       Zr  0.01581157  0.31243610  0.39402776     2.10000
Zr100      Zr  0.95604987  0.03084853  0.46489118     1.78800
O101        O  0.07205962  0.27911917  0.37434650    -0.92500
O102        O  0.91726604  0.06805034  0.50758646    -0.40400
O103        O  0.02672123  0.02807067  0.45672602    -0.77000
O104        O  0.02550330  0.04065195  0.55305901    -0.95700
O105        O  0.08157743  0.33408467  0.58636377    -0.89000
O106        O  0.08397590  0.32245586  0.48160925    -0.91800
C107        C  0.84294811  0.31236548  0.38884297     1.01900
C108        C  0.94184458  0.22973076  0.33998671     1.14900
C109        C  0.94286604  0.25200815  0.58944938     1.05600
O110        O  0.98344138  0.03254565  0.64710525    -0.94800
O111        O  0.08231454  0.04612781  0.67755738    -0.89700
O112        O  0.12498223  0.06804590  0.63493585    -0.82900
C113        C  0.11448549  0.06852716  0.67535355     1.12300
O114        O  0.08707970  0.20285941  0.56557300    -0.96000
Zr115      Zr  0.08941029  0.27351662  0.54711170     1.88900
O116        O  0.17750966  0.01861023  0.59681306    -0.72600
O117        O  0.05876159  0.31700960  0.68801560    -0.51900
O118        O  0.12579627  0.25963912  0.64691629    -0.96500
O119        O  0.12688092  0.23403521  0.50482944    -0.53800
O120        O  0.16721612  0.30565749  0.58102973    -0.73100
C121        C  0.18364102  0.34127008  0.58227759     0.99200
O122        O  0.10300195  0.10498064  0.53434174    -0.61900
O123        O  0.98014940  0.98674839  0.32427347    -0.56700
O124        O  0.12404052  0.04843898  0.47808657    -0.93400
O125        O  0.07849092  0.01449382  0.39660474    -0.91800
O126        O  0.92081584  0.04954913  0.36693275    -0.92200
O127        O  0.96220499  0.10226209  0.45443836    -0.91000
C128        C  0.11138497  0.03987623  0.42651307     1.18100
H129        H  0.91881485  0.31028376  0.36353494     0.34000
H130        H  0.02562640  0.06679086  0.56791251     0.44900
H131        H  0.11100813  0.32333264  0.47549529     0.38400
H132        H  0.01925065  0.25171066  0.57673983     0.34900
H133        H  0.88729920  0.07495573  0.47590785     0.26700
H134        H  0.03928757  0.32036946  0.70704174     0.32600
H135        H  0.15933506  0.26582938  0.66067226     0.38500
H136        H  0.89013891  0.05938074  0.35917901     0.33000
H137        H  0.97969752  0.01594066  0.32776774     0.31800
H138        H  0.05825793  0.27836353  0.33297044     0.33500
H139        H  0.13947832  0.25354204  0.48738833     0.32500
H140        H  0.99224029  0.10685435  0.45387812     0.36500
H141        H  0.08360798  0.10942398  0.49386103     0.29200
H142        H  0.90359666  0.18989718  0.45872274     0.33500
H143        H  0.11989094  0.19548798  0.58624182     0.36300
H144        H  0.99743875  0.98264356  0.30268309     0.28900
H145        H  0.08560332  0.11700923  0.55212366     0.41800
H146        H  0.98555630  0.05925533  0.63303120     0.31800
H147        H  0.90870084  0.04812598  0.52855905     0.39500
H148        H  0.10101596  0.21982351  0.47276220     0.31300
H149        H  0.06180741  0.28796898  0.68662094     0.31400
H150        H  0.95671255  0.18505464  0.49902655     0.31600
C151        C  0.40264805  0.04230033  0.70126680     0.80800
N152        N  0.41029683  0.33970736  0.69360884    -0.77500
C153        C  0.39341817  0.31441463  0.72013535     0.83300
N154        N  0.34678611  0.30990713  0.70085501    -0.77400
C155        C  0.32800844  0.02108583  0.68712995     0.83400
N156        N  0.35564185  0.04436331  0.67295006    -0.79100
C157        C  0.88504950  0.12280752  0.13090121     0.80800
N158        N  0.91534888  0.14266072  0.17891310    -0.77500
C159        C  0.89942820  0.16893651  0.20377426     0.83300
N160        N  0.85340593  0.17567790  0.18011146    -0.77400
C161        C  0.82295327  0.15640766  0.13237793     0.83400
N162        N  0.83889546  0.12998944  0.10762235    -0.79100
Zr163      Zr  0.58231017  0.09611868  0.00725479     2.17500
O164        O  0.58273147  0.02454830  0.99450943    -0.50700
O165        O  0.66378919  0.11211360  0.04119814    -0.73900
O166        O  0.59817342  0.08228393  0.92987272    -0.80700
O167        O  0.57959669  0.08285459  0.14633052    -0.82400
O168        O  0.55457373  0.12061762  0.85567705    -0.78100
O169        O  0.61503439  0.06161064  0.09574804    -0.89700
O170        O  0.67495996  0.17852996  0.05990217    -0.75700
O171        O  0.58630420  0.15853146  0.96799596    -0.85200
O172        O  0.59604753  0.14441727  0.07823296    -0.84900
O173        O  0.50991407  0.10085040  0.92407550    -0.71600
O174        O  0.51861497  0.08763594  0.02821712    -0.83700
Zr175      Zr  0.46021484  0.20496579  0.97554114     2.26400
Zr176      Zr  0.51297227  0.16494523  0.88676454     2.06300
Zr177      Zr  0.53119354  0.13810104  0.09721288     2.10000
Zr178      Zr  0.59985270  0.20632729  0.03906987     1.78800
O179        O  0.48715814  0.09876103  0.13360405    -0.92500
O180        O  0.63024638  0.25042287  0.99112044    -0.40400
O181        O  0.53421936  0.20087405  0.05762658    -0.77000
O182        O  0.52615034  0.21387492  0.95768788    -0.95700
O183        O  0.44839233  0.15648127  0.90564981    -0.89000
O184        O  0.45779656  0.14244986  0.01547916    -0.91800
C185        C  0.68958394  0.14388263  0.05751485     1.01900
C186        C  0.60805345  0.06091140  0.13900338     1.14900
C187        C  0.58428930  0.09387191  0.87947153     1.05600
O188        O  0.55517828  0.20557832  0.84919136    -0.94000
O189        O  0.46668572  0.22161007  0.83832513    -0.89700
O190        O  0.42936872  0.24064193  0.88760534    -0.82900
C191        C  0.43793615  0.24317910  0.84557833     1.12300
O192        O  0.45272757  0.02337419  0.93131168    -0.96000
Zr193      Zr  0.44658020  0.09389533  0.94538772     1.88900
O194        O  0.37711645  0.18530814  0.93268201    -0.72600
O195        O  0.45464070  0.13950210  0.79553777    -0.51900
O196        O  0.40262104  0.07298726  0.84724981    -0.96500
O197        O  0.41152860  0.05440926  0.99289655    -0.53800
O198        O  0.37050795  0.11936737  0.91101698    -0.73100
C199        C  0.35320278  0.15273173  0.91116882     0.99200
O200        O  0.45811874  0.27668572  0.98526132    -0.61900
O201        O  0.58636989  0.16514505  0.18912330    -0.56700
O202        O  0.44690242  0.22272264  0.05462375    -0.93400
O203        O  0.49448809  0.18694277  0.12958200    -0.91800
O204        O  0.64829824  0.22102404  0.13851886    -0.92200
O205        O  0.60097659  0.27633630  0.06238248    -0.91000
C206        C  0.46474351  0.21388786  0.10672723     1.18100
H207        H  0.62486073  0.14027663  0.11143665     0.34000
H208        H  0.52640717  0.24010352  0.94344175     0.44900
H209        H  0.43283153  0.14080080  0.02548421     0.38400
H210        H  0.50639130  0.08010485  0.89745391     0.34900
H211        H  0.66246563  0.25754518  0.01952912     0.26700
H212        H  0.46480440  0.15040110  0.76866390     0.32600
H213        H  0.37323771  0.06058939  0.84360223     0.38500
H214        H  0.67796638  0.23205810  0.14132196     0.33000
H215        H  0.57904187  0.15028960  0.21593779     0.31800
H216        H  0.50185318  0.10579748  0.17405043     0.33500
H217        H  0.39703002  0.07372796  0.00705842     0.32500
H218        H  0.56907347  0.28088971  0.05624430     0.36500
H219        H  0.47428360  0.28296694  0.02592599     0.29200
H220        H  0.61243484  0.01980961  0.99405566     0.33500
H221        H  0.42084292  0.01148946  0.91632217     0.36300
H222        H  0.61697325  0.15581391  0.19577566     0.28900
H223        H  0.48018313  0.28720981  0.97218797     0.41800
H224        H  0.55920328  0.23207903  0.86713216     0.31800
H225        H  0.63379767  0.23299746  0.96384145     0.39500
H226        H  0.43817859  0.04496851  0.02696479     0.31300
H227        H  0.45973235  0.11071261  0.79592976     0.31400
H228        H  0.55851513  0.01868594  0.95564052     0.31600
C229        C  0.15552708  0.19917171  0.85464098     0.80800
N230        N  0.20247261  0.20234304  0.87698469    -0.77500
C231        C  0.22544733  0.17750081  0.85989122     0.83300
N232        N  0.20100742  0.14904269  0.81983637    -0.77400
C233        C  0.15382164  0.14559219  0.79709982     0.83400
N234        N  0.13135587  0.17079695  0.81478461    -0.79100
C235        C  0.67016261  0.03996884  0.84744260     0.80800
N236        N  0.71687501  0.04245908  0.86771104    -0.77500
C237        C  0.73827489  0.01700986  0.84917497     0.83300
N238        N  0.71304591  0.31824368  0.81426336    -0.77400
C239        C  0.66602622  0.31613235  0.79486229     0.83400
N240        N  0.64632963  0.34185586  0.81566920    -0.79100
C241        C  0.39453913  0.27890133  0.15607475     0.80800
N242        N  0.34833930  0.27797838  0.13995106    -0.77500
C243        C  0.33086905  0.30030140  0.16708833     0.83300
N244        N  0.36010615  0.32431527  0.21069704    -0.77400
C245        C  0.40665697  0.32583572  0.22745280     0.83400
N246        N  0.42382974  0.30312338  0.19978709    -0.79100
Zr247      Zr  0.10209037  0.27118339  0.06238332     2.17500
O248        O  0.11780360  0.20081175  0.06643787    -0.50700
O249        O  0.18351331  0.29252304  0.11608168    -0.73900
O250        O  0.13346297  0.25372667  0.99948911    -0.80700
O251        O  0.05660140  0.25195506  0.16917024    -0.82400
O252        O  0.09921472  0.28998483  0.92037838    -0.78100
O253        O  0.10964328  0.23224458  0.14224070    -0.89700
O254        O  0.18643852  0.01340180  0.07668118    -0.75700
O255        O  0.11284239  0.33354088  0.02772613    -0.85200
O256        O  0.09869129  0.31978248  0.12434143    -0.84900
O257        O  0.04009885  0.27332754  0.96822896    -0.71600
O258        O  0.02664762  0.26146618  0.05676352    -0.83700
Zr259      Zr  0.97137277  0.03883068  0.97707696     2.26400
Zr260      Zr  0.05029461  0.33703563  0.93480344     2.06300
Zr261      Zr  0.02262995  0.31148323  0.11721380     2.10000
Zr262      Zr  0.11087749  0.04104403  0.05403310     1.78800
O263        O  0.95888502  0.27790148  0.12630564    -0.92500
O264        O  0.14075156  0.08442541  0.00480760    -0.40400
O265        O  0.04120986  0.03684524  0.06461746    -0.77000
O266        O  0.04111790  0.04654851  0.96683946    -0.95700
O267        O  0.97435895  0.32803019  0.92767551    -0.89000
O268        O  0.95965531  0.31455986  0.02409123    -0.91800
C269        C  0.20623030  0.32597776  0.13309965     1.01900
C270        C  0.08866904  0.22922214  0.17267860     1.14900
C271        C  0.12661087  0.26325533  0.95026337     1.05600
O272        O  0.07461584  0.03442258  0.86130465    -0.94000
O273        O  0.98557204  0.04735310  0.84395850    -0.89700
O274        O  0.94335606  0.06852219  0.88606837    -0.82900
C275        C  0.95402757  0.06835327  0.84579603     1.12300
O276        O  0.97396056  0.19562827  0.95141139    -0.96000
Zr277      Zr  0.96500562  0.26577441  0.96330268     1.88900
O278        O  0.88860634  0.02031761  0.92747096    -0.72600
O279        O  0.01001433  0.31428337  0.83730694    -0.51900
O280        O  0.94048590  0.24635014  0.86609159    -0.96500
O281        O  0.92050330  0.22307796  0.99577346    -0.53800
O282        O  0.88672217  0.28746424  0.91164500    -0.73100
C283        C  0.86731316  0.32034333  0.90821979     0.99200
O284        O  0.96901742  0.11065723  0.98330528    -0.61900
O285        O  0.07730740  0.00255685  0.19985715    -0.56700
O286        O  0.94684780  0.05897878  0.04569822    -0.93400
O287        O  0.99012782  0.02557779  0.12533250    -0.91800
O288        O  0.15993351  0.05609393  0.15331429    -0.92200
O289        O  0.11074714  0.11028176  0.07965076    -0.91000
C290        C  0.96025190  0.05155706  0.09758267     1.18100
H291        H  0.12264805  0.31626777  0.16223230     0.34000
H292        H  0.04208330  0.07213958  0.95123423     0.44900
H293        H  0.93025763  0.31242375  0.02488678     0.38400
H294        H  0.04230276  0.25215637  0.94549863     0.34900
H295        H  0.17184938  0.09385921  0.03387122     0.26700
H296        H  0.03248288  0.31960111  0.82258929     0.32600
H297        H  0.92563523  0.26987389  0.84401865     0.38500
H298        H  0.19012401  0.06562897  0.15611837     0.33000
H299        H  0.07358990  0.98220937  0.22412689     0.31800
H300        H  0.96317275  0.28627694  0.16372043     0.33500
H301        H  0.90214572  0.24129381  0.00573171     0.32500
H302        H  0.07894728  0.11849702  0.05443095     0.36500
H303        H  0.98745504  0.11759873  0.02362588     0.29200
H304        H  0.15102732  0.19968093  0.07600874     0.33500
H305        H  0.94230304  0.18459806  0.92646989     0.36300
H306        H  0.11029385  0.00181259  0.20822211     0.28900
H307        H  0.98887002  0.12062060  0.96672440     0.41800
H308        H  0.08029056  0.06079915  0.88003735     0.31800
H309        H  0.14717955  0.06623740  0.98055400     0.39500
H310        H  0.94380994  0.21309431  0.03213642     0.31300
H311        H  0.00782203  0.28499448  0.83893282     0.31400
H312        H  0.10064630  0.19065001  0.02730276     0.31600
C313        C  0.25761744  0.32651987  0.15940090    -0.15800
C314        C  0.28013041  0.29829817  0.14751151    -0.31000
H315        H  0.27698323  0.35230682  0.18483137     0.13200
H316        H  0.26020405  0.27404744  0.11883418     0.13800
C317        C  0.79091613  0.34894138  0.87835720    -0.15800
C318        C  0.81611588  0.31936384  0.87532158    -0.31000
H319        H  0.80762601  0.04566570  0.89980551     0.13200
H320        H  0.79863492  0.29235431  0.85179000     0.13800
C321        C  0.13092305  0.22549004  0.87479795    -0.15800
C322        C  0.15200437  0.24112071  0.92696674    -0.31000
H323        H  0.09417023  0.22959770  0.84826068     0.13200
H324        H  0.18738907  0.23366037  0.95540893     0.13800
C325        C  0.27676206  0.18136200  0.88645065    -0.15800
C326        C  0.30197741  0.15188218  0.88333663    -0.31000
H327        H  0.29403822  0.20794705  0.91131373     0.13200
H328        H  0.28417989  0.12471191  0.86051187     0.13800
C329        C  0.60419699  0.07435923  0.84718053    -0.15800
C330        C  0.64899777  0.06521486  0.87295198    -0.31000
H331        H  0.58223361  0.06668832  0.80326094     0.13200
H332        H  0.67113369  0.07600097  0.91556874     0.13800
C333        C  0.45083279  0.23688817  0.14334872    -0.15800
C334        C  0.41075439  0.25589278  0.12206611    -0.31000
H335        H  0.47315792  0.23745274  0.18833154     0.13200
H336        H  0.38688763  0.25234458  0.07767104     0.13800
C337        C  0.77303581  0.16450474  0.10926738    -0.15800
C338        C  0.73937907  0.13896252  0.07451469    -0.31000
H339        H  0.76379431  0.19056319  0.12513018     0.13200
H340        H  0.74883996  0.11161764  0.06169827     0.13800
C341        C  0.94137894  0.07558658  0.12822328    -0.15800
C342        C  0.90193508  0.09546495  0.10164120    -0.31000
H343        H  0.96070454  0.07741628  0.17363087     0.13200
H344        H  0.88094544  0.09145172  0.05664833     0.13800
C345        C  0.42489879  0.28931041  0.76683593    -0.15800
C346        C  0.41088670  0.27205324  0.80208017    -0.31000
H347        H  0.45932624  0.28428600  0.77158628     0.13200
H348        H  0.37767372  0.27958749  0.79928266     0.13800
C349        C  0.23441635  0.34850611  0.60344993    -0.15800
C350        C  0.26619801  0.32282313  0.63546130    -0.31000
H351        H  0.26662462  0.96329103  0.67456683     0.13200
H352        H  0.25492311  0.29590206  0.64862892     0.13800
C353        C  0.14261532  0.09694680  0.72209299    -0.15800
C354        C  0.12639600  0.11443726  0.75407062    -0.31000
H355        H  0.17681065  0.10617441  0.72736668     0.13200
H356        H  0.09095468  0.10754482  0.74615714     0.13800
C357        C  0.91685954  0.20133276  0.29285688    -0.15800
C358        C  0.93141881  0.19126518  0.25537682    -0.31000
H359        H  0.88345722  0.18935947  0.28734770     0.13200
H360        H  0.96583893  0.20055387  0.26157376     0.13800
C361        C  0.76426987  0.27934046  0.35322912    -0.15800
C362        C  0.79187276  0.31016002  0.35439714    -0.31000
H363        H  0.77937665  0.25368032  0.37863747     0.13200
H364        H  0.79474641  0.93112303  0.40960911     0.13800
C365        C  0.63647814  0.03386742  0.18413087    -0.15800
C366        C  0.62164154  0.01690947  0.21845430    -0.31000
H367        H  0.67033221  0.02696952  0.18837966     0.13200
H368        H  0.58637398  0.02105327  0.21139374     0.13800
C369        C  0.10243197  0.19761738  0.21514430    -0.15800
C370        C  0.14208353  0.17859436  0.23099635    -0.31000
H371        H  0.08117526  0.19154089  0.23594970     0.13200
H372        H  0.16461546  0.18675049  0.21254067     0.13800
C373        C  0.12081839  0.07645824  0.35134630    -0.15800
C374        C  0.13882430  0.06032966  0.40246702    -0.31000
H375        H  0.08366518  0.07390170  0.32390793     0.13200
H376        H  0.17538736  0.06602612  0.43113553     0.13800
C377        C  0.30575356  0.14885172  0.38117797    -0.15800
C378        C  0.27715225  0.11903411  0.38126171    -0.31000
H379        H  0.29098414  0.17505604  0.35689379     0.13200
H380        H  0.29125367  0.09370799  0.40787039     0.13800
C381        C  0.65020325  0.26593360  0.72043244    -0.15800
C382        C  0.63582903  0.28578612  0.75238447    -0.31000
H383        H  0.68487553  0.27255655  0.72536107     0.13200
H384        H  0.60013147  0.28144349  0.74493835     0.13800
C385        C  0.42537150  0.02905731  0.31764064    -0.15800
C386        C  0.44145650  0.01889831  0.28157910    -0.31000
H387        H  0.39107462  0.01815220  0.31020397     0.13200
H388        H  0.47183510  0.36192921  0.27761114     0.13800
C389        C  0.41463020  0.07879413  0.63016008    -0.15800
C390        C  0.43229314  0.06589884  0.68292352    -0.31000
H391        H  0.37852251  0.07145014  0.60105330     0.13200
H392        H  0.46923463  0.06986686  0.71098541     0.13800
C393        C  0.63363700  0.23016358  0.39521126    -0.15800
C394        C  0.61449024  0.23730012  0.34036617    -0.31000
H395        H  0.66885088  0.24122454  0.42274436     0.13200
H396        H  0.57799801  0.22979358  0.31331732     0.13800
C397        C  0.77445813  0.12906647  0.62998006    -0.15800
C398        C  0.74510758  0.15839924  0.60737835    -0.31000
H399        H  0.76265285  0.10121276  0.64033361     0.13200
H400        H  0.75837331  0.18695175  0.60088222     0.13800
C401        C  0.93659012  0.10384812  0.75721133    -0.15800
C402        C  0.92552476  0.09290027  0.79771240    -0.31000
H403        H  0.97028077  0.09764715  0.76044935     0.13200
H404        H  0.89287709  0.10197517  0.79522129     0.13800
C405        C  0.89704947  0.19497584  0.59896531    -0.15800
C406        C  0.92846655  0.22513617  0.62258099    -0.31000
H407        H  0.87839176  0.19153878  0.55365958     0.13200
H408        H  0.94460337  0.22986182  0.66771968     0.13800
C409        C  0.91288164  0.53083794  0.69670120     0.80800
N410        N  0.93126478  0.50830968  0.74339538    -0.77500
C411        C  0.90276531  0.48623776  0.75818891     0.83300
N412        N  0.85604927  0.48690995  0.72615836    -0.77400
C413        C  0.83750384  0.50914995  0.67944543     0.83400
N414        N  0.86600523  0.53112701  0.66512270    -0.79100
Zr415      Zr  0.46443903  0.43909124  0.48140769     2.17500
O416        O  0.43511268  0.37048259  0.47380672    -0.50700
O417        O  0.38683040  0.46516229  0.43301091    -0.73900
O418        O  0.44204213  0.42132440  0.55440649    -0.80700
O419        O  0.48528726  0.41822708  0.35397180    -0.82400
O420        O  0.48946040  0.45704965  0.63334223    -0.78100
O421        O  0.44031090  0.40039309  0.39536100    -0.89700
O422        O  0.39235236  0.53098125  0.41811094    -0.75700
O423        O  0.46913017  0.50214101  0.52417317    -0.85200
O424        O  0.46838662  0.48688420  0.41841005    -0.84900
O425        O  0.53441970  0.43847761  0.56920003    -0.71600
O426        O  0.53229178  0.42549884  0.47095230    -0.83700
Zr427      Zr  0.61095661  0.53814588  0.53931484     2.26400
Zr428      Zr  0.53918730  0.50245597  0.61123207     2.06300
Zr429      Zr  0.53649133  0.47428392  0.40880247     2.10000
Zr430      Zr  0.47403476  0.54982782  0.46165666     1.78800
O431        O  0.58758670  0.43432440  0.38771004    -0.92500
O432        O  0.44158893  0.59233285  0.50681586    -0.40400
O433        O  0.54164066  0.53774792  0.45158356    -0.77000
O434        O  0.54326240  0.55241955  0.54971035    -0.95700
O435        O  0.60733824  0.49000550  0.60181132    -0.89000
O436        O  0.60681200  0.47538368  0.49573609    -0.91800
C437        C  0.36894600  0.49867482  0.41370779     1.01900
C438        C  0.45255894  0.39708008  0.35654635     1.14900
C439        C  0.45705952  0.43049051  0.60656035     1.05600
O440        O  0.49480476  0.54523378  0.63974167    -0.94000
O441        O  0.59399695  0.55475309  0.67087571    -0.89700
O442        O  0.63829761  0.57332177  0.62897161    -0.82900
C443        C  0.62733505  0.57537501  0.66897954     1.12300
O444        O  0.58142689  0.35725386  0.55698169    -0.96000
Zr445      Zr  0.60218448  0.42749061  0.55824818     1.88900
O446        O  0.68900514  0.51396325  0.58713539    -0.72600
O447        O  0.58569600  0.47829600  0.70544818    -0.51900
O448        O  0.63180797  0.40189948  0.65260343    -0.96500
O449        O  0.63920462  0.38570110  0.51783710    -0.53800
O450        O  0.68337937  0.44940045  0.60783854    -0.73100
C451        C  0.70682491  0.48151001  0.61078947     0.99200
O452        O  0.64254039  0.60479079  0.53863397    -0.61900
O453        O  0.49260981  0.49301783  0.31115362    -0.56700
O454        O  0.62621009  0.56070455  0.46315327    -0.93400
O455        O  0.57713433  0.52662367  0.38327540    -0.91800
O456        O  0.44247528  0.57132353  0.36505886    -0.92200
O457        O  0.49281422  0.61975195  0.45607956    -0.91000
C458        C  0.60864670  0.55382376  0.41011167     1.18100
H459        H  0.44118395  0.48462922  0.38236118     0.34000
H460        H  0.54667593  0.57860073  0.56611542     0.44900
H461        H  0.63356732  0.47227626  0.48965216     0.38400
H462        H  0.53227096  0.41754831  0.59240592     0.34900
H463        H  0.41574686  0.60532148  0.47557907     0.26700
H464        H  0.57063105  0.48817230  0.72744551     0.32600
H465        H  0.65927915  0.38697023  0.65832709     0.38500
H466        H  0.41531592  0.58686338  0.35889527     0.33000
H467        H  0.49795362  0.47207078  0.28920183     0.31800
H468        H  0.58178886  0.44237879  0.34975368     0.33500
H469        H  0.66464045  0.37347050  0.55046957     0.32500
H470        H  0.52138698  0.61989969  0.45160555     0.36500
H471        H  0.62325913  0.62282235  0.54725834     0.29200
H472        H  0.40382649  0.37187877  0.47127495     0.33500
H473        H  0.54789638  0.35627175  0.54633047     0.36300
H474        H  0.45953965  0.48906223  0.30207019     0.28900
H475        H  0.67357834  0.60681653  0.57171646     0.41800
H476        H  0.49640996  0.57137598  0.62389926     0.31800
H477        H  0.42610741  0.57377561  0.52201613     0.39500
H478        H  0.65526678  0.40428573  0.50344756     0.31300
H479        H  0.57939573  0.44920446  0.70250701     0.31400
H480        H  0.45447685  0.35856557  0.51053962     0.31600
C481        C  0.17093445  0.45546706  0.36954921     0.80800
N482        N  0.14639438  0.47982575  0.32685441    -0.77500
C483        C  0.16816434  0.50220396  0.30353305     0.83300
N484        N  0.21500206  0.50033916  0.32349277    -0.77400
C485        C  0.23961988  0.47599094  0.36668512     0.83400
N486        N  0.21734245  0.45380276  0.38941077    -0.79100
C487        C  0.68043688  0.63009486  0.37135028     0.80800
N488        N  0.65011051  0.65065251  0.32657575    -0.77500
C489        C  0.66637649  0.67716027  0.30094568     0.83300
N490        N  0.71297064  0.68312229  0.32055349    -0.77400
C491        C  0.74336608  0.66282417  0.36501713     0.83400
N492        N  0.72687489  0.63657471  0.39051548    -0.79100
Zr493      Zr  0.97777592  0.59739396  0.48921085     2.17500
O494        O  0.96918674  0.52524677  0.48533807    -0.50700
O495        O  0.89725991  0.61441998  0.44857546    -0.73900
O496        O  0.94857272  0.57666973  0.55377072    -0.80700
O497        O  0.99432091  0.59439995  0.35822928    -0.82400
O498        O  0.98679789  0.61284193  0.63503463    -0.78100
O499        O  0.94855124  0.57007016  0.39565021    -0.89700
O500        O  0.86179198  0.34688766  0.39258008    -0.75700
O501        O  0.97238010  0.65771936  0.53084464    -0.85200
O502        O  0.97881046  0.64842211  0.42857762    -0.84900
O503        O  0.04338599  0.59945202  0.58032321    -0.71600
O504        O  0.04935613  0.59108645  0.48475123    -0.83700
Zr505      Zr  0.07633338  0.38340977  0.52094731     2.26400
Zr506      Zr  0.03863139  0.66111295  0.62112833     2.06300
Zr507      Zr  0.05083618  0.64355743  0.42529342     2.10000
Zr508      Zr  0.93889786  0.37668741  0.43871579     1.78800
O509        O  0.09959597  0.59985593  0.40530349    -0.92500
O510        O  0.89674178  0.41265048  0.47813456    -0.40400
O511        O  0.00919616  0.37479934  0.43166328    -0.77000
O512        O  0.00555247  0.38647201  0.52784258    -0.95700
O513        O  0.11138779  0.65674475  0.61944301    -0.89000
O514        O  0.11704780  0.64694583  0.51610140    -0.91800
C515        C  0.87497547  0.64644480  0.43393640     1.01900
C516        C  0.95986848  0.57280774  0.35603329     1.14900
C517        C  0.95695187  0.58574976  0.60396783     1.05600
O518        O  0.95456548  0.36752762  0.61347777    -0.94800
O519        O  0.05287655  0.39381539  0.64598217    -0.89700
O520        O  0.09879715  0.41900467  0.60934238    -0.82900
C521        C  0.08385562  0.41865347  0.64608126     1.12300
O522        O  0.10373180  0.52574703  0.58815639    -0.96000
Zr523      Zr  0.11514888  0.59623705  0.57641009     1.88900
O524        O  0.15873843  0.37175190  0.56466872    -0.72600
O525        O  0.08650938  0.63373186  0.71281245    -0.51900
O526        O  0.14888603  0.57734717  0.67433729    -0.96500
O527        O  0.15451863  0.55743334  0.53584057    -0.53800
O528        O  0.19441612  0.62255693  0.62305987    -0.73100
C529        C  0.21442339  0.65710827  0.63177092     0.99200
O530        O  0.07974643  0.45539660  0.51299568    -0.61900
O531        O  0.96897816  0.33189254  0.29724526    -0.56700
O532        O  0.09746314  0.40276918  0.44905479    -0.93400
O533        O  0.05424683  0.36603448  0.36934718    -0.91800
O534        O  0.90544608  0.39672833  0.34138596    -0.92200
O535        O  0.94601690  0.44771015  0.42664087    -0.91000
C536        C  0.08393287  0.39395401  0.39728300     1.18100
H537        H  0.95257848  0.64583106  0.39173244     0.34000
H538        H  0.00370466  0.41209631  0.54258545     0.44900
H539        H  0.14534907  0.64655812  0.51274968     0.38400
H540        H  0.04129983  0.57746029  0.60208765     0.34900
H541        H  0.86926100  0.42229053  0.44519670     0.26700
H542        H  0.07181033  0.64189382  0.73604155     0.32600
H543        H  0.17802415  0.56441902  0.68193374     0.38500
H544        H  0.87612517  0.40918042  0.33412845     0.33000
H545        H  0.97551103  0.31256124  0.27433097     0.31800
H546        H  0.08461692  0.57306168  0.40073353     0.33500
H547        H  0.16768100  0.57711154  0.51925063     0.32500
H548        H  0.97368275  0.45120606  0.42047780     0.36500
H549        H  0.06524618  0.46076374  0.47242011     0.29200
H550        H  0.93913785  0.51896869  0.48517938     0.33500
H551        H  0.13483309  0.51450822  0.60318035     0.36300
H552        H  0.93636789  0.32558536  0.28865104     0.28900
H553        H  0.05676458  0.46469338  0.52440652     0.41800
H554        H  0.95678545  0.39579128  0.60473260     0.31800
H555        H  0.88395604  0.39184622  0.49368544     0.39500
H556        H  0.12923391  0.54317701  0.50323911     0.31300
H557        H  0.08014541  0.60466986  0.70751693     0.31400
H558        H  0.99298254  0.51669882  0.52236732     0.31600
C559        C  0.38056052  0.36055066  0.64849664     0.80800
N560        N  0.43754226  0.68773014  0.74140598    -0.77500
C561        C  0.41325501  0.66051412  0.75561176     0.83300
N562        N  0.36616187  0.66153449  0.73158368    -0.77400
C563        C  0.31685922  0.33031135  0.65619763     0.83400
N564        N  0.33389120  0.35534947  0.62976203    -0.79100
C565        C  0.88987558  0.46926685  0.14246500     0.80800
N566        N  0.92097454  0.49075432  0.18805710    -0.77500
C567        C  0.90595462  0.51666551  0.21421330     0.83300
N568        N  0.85952736  0.52098717  0.19444461    -0.77400
C569        C  0.82827345  0.49959142  0.14896976     0.83400
N570        N  0.84371806  0.47395497  0.12292299    -0.79100
Zr571      Zr  0.58854839  0.42877801  0.01622394     2.17500
O572        O  0.59202222  0.35784443  0.00128548    -0.50700
O573        O  0.67061814  0.44716297  0.05658841    -0.73900
O574        O  0.60586751  0.41697546  0.93964621    -0.80700
O575        O  0.58048156  0.40838101  0.14943734    -0.82400
O576        O  0.56231862  0.45544542  0.86580472    -0.78100
O577        O  0.61853010  0.39021800  0.10057069    -0.89700
O578        O  0.67970238  0.51305923  0.07870607    -0.75700
O579        O  0.59378826  0.49259559  0.98158110    -0.85200
O580        O  0.59839358  0.47429103  0.08876667    -0.84900
O581        O  0.51741838  0.43457945  0.93155831    -0.71600
O582        O  0.52205781  0.41715455  0.03146104    -0.83700
Zr583      Zr  0.46441280  0.53431208  0.98484178     2.26400
Zr584      Zr  0.52195582  0.49980021  0.89849610     2.06300
Zr585      Zr  0.53140864  0.46423068  0.10302175     2.10000
Zr586      Zr  0.60317506  0.53789192  0.05390436     1.78800
O587        O  0.48118510  0.42093375  0.12583785    -0.92500
O588        O  0.63379278  0.58384095  0.00810847    -0.40400
O589        O  0.53624500  0.52883140  0.06902280    -0.77000
O590        O  0.53153448  0.54649796  0.97052813    -0.95700
O591        O  0.45526514  0.48901143  0.91262116    -0.89000
O592        O  0.45954981  0.47034898  0.01954469    -0.91800
C593        C  0.69564748  0.47921799  0.07608644     1.01900
C594        C  0.60957398  0.38720964  0.14209132     1.14900
C595        C  0.59191955  0.42862208  0.88929391     1.05600
O596        O  0.57004440  0.54286078  0.87192331    -0.94000
O597        O  0.47424599  0.55606504  0.85254000    -0.89700
O598        O  0.43305483  0.57073694  0.89891619    -0.82900
C599        C  0.44358622  0.57549680  0.85895387     1.12300
O600        O  0.45843889  0.35560977  0.92909831    -0.96000
Zr601      Zr  0.45124464  0.42512398  0.94708045     1.88900
O602        O  0.38154424  0.51667314  0.93562926    -0.72600
O603        O  0.46863599  0.47997354  0.80211469    -0.51900
O604        O  0.41346733  0.40486258  0.84842184    -0.96500
O605        O  0.41125449  0.38414209  0.98725885    -0.53800
O606        O  0.37509742  0.45254367  0.90591991    -0.73100
C607        C  0.35778525  0.48566825  0.90783095     0.99200
O608        O  0.46180572  0.60535897  0.00021567    -0.61900
O609        O  0.57961031  0.48303998  0.20121845    -0.56700
O610        O  0.44704378  0.54887245  0.06086321    -0.93400
O611        O  0.49526781  0.51362498  0.13598018    -0.91800
O612        O  0.65128254  0.55070312  0.15379998    -0.92200
O613        O  0.60052117  0.60661999  0.07976842    -0.91000
C614        C  0.46494310  0.54017970  0.11286842     1.18100
H615        H  0.62646161  0.46971576  0.12273636     0.34000
H616        H  0.53177895  0.57326147  0.95790849     0.44900
H617        H  0.43347229  0.46783471  0.02746900     0.38400
H618        H  0.51488112  0.41463213  0.90437797     0.34900
H619        H  0.66189668  0.59660564  0.03903651     0.26700
H620        H  0.48564895  0.48662555  0.78056278     0.32600
H621        H  0.38239195  0.39391301  0.84084590     0.38500
H622        H  0.62910726  0.55056681  0.16951200     0.33000
H623        H  0.57370038  0.46166397  0.22257933     0.31800
H624        H  0.49366570  0.42405657  0.16690110     0.33500
H625        H  0.39099588  0.40230607  0.99393460     0.32500
H626        H  0.56906405  0.61466034  0.05295623     0.36500
H627        H  0.48332138  0.61042455  0.04039576     0.29200
H628        H  0.62265875  0.35433970  0.00272013     0.33500
H629        H  0.42683306  0.34318962  0.91454056     0.36300
H630        H  0.61192822  0.47967053  0.20811390     0.28900
H631        H  0.47804689  0.61836421  0.98087006     0.41800
H632        H  0.60120749  0.53163319  0.89040121     0.31800
H633        H  0.64593856  0.56664530  0.98848137     0.39500
H634        H  0.43567746  0.37790767  0.02513957     0.31300
H635        H  0.46690228  0.45059228  0.80210743     0.31400
H636        H  0.56913342  0.35225947  0.96171472     0.31600
C637        C  0.15825784  0.53931699  0.82110478     0.80800
N638        N  0.20514756  0.54009361  0.85292746    -0.77500
C639        C  0.23182813  0.51845594  0.83759789     0.83300
N640        N  0.21142677  0.49607987  0.78962688    -0.77400
C641        C  0.16466278  0.49499183  0.75747729     0.83400
N642        N  0.13799395  0.51659209  0.77340432    -0.79100
C643        C  0.67313690  0.36953330  0.85521335     0.80800
N644        N  0.71960948  0.37118936  0.87449002    -0.77500
C645        C  0.73984297  0.34606781  0.85406523     0.83300
N646        N  0.71788210  0.65063836  0.81582568    -0.77400
C647        C  0.67104210  0.64732693  0.79675822     0.83400
N648        N  0.65133770  0.66906625  0.82212095    -0.79100
C649        C  0.39905757  0.61321001  0.15760462     0.80800
N650        N  0.35364827  0.62223715  0.13573929    -0.77500
C651        C  0.33979138  0.64927702  0.16177614     0.83300
N652        N  0.37161206  0.66749109  0.20940908    -0.77400
C653        C  0.41710521  0.65904859  0.23174137     0.83400
N654        N  0.43107929  0.63200361  0.20561495    -0.79100
Zr655      Zr  0.10050816  0.59027133  0.03617221     2.17500
O656        O  0.10206281  0.51833328  0.02926255    -0.50700
O657        O  0.18166339  0.60691283  0.07233866    -0.73900
O658        O  0.12657984  0.57493272  0.96821004    -0.80700
O659        O  0.09170587  0.58251488  0.17040111    -0.82400
O660        O  0.08968403  0.61361764  0.89209066    -0.78100
O661        O  0.13227971  0.56002636  0.12683777    -0.89700
O662        O  0.18741486  0.35953006  0.12785494    -0.75700
O663        O  0.10933298  0.65205991  0.99922885    -0.85200
O664        O  0.10863708  0.63932173  0.10408799    -0.84900
O665        O  0.03298685  0.59422883  0.94748545    -0.71600
O666        O  0.03145777  0.58212400  0.04666410    -0.83700
Zr667      Zr  0.96997298  0.37682113  0.98863928     2.26400
Zr668      Zr  0.04095679  0.65766618  0.91230687     2.06300
Zr669      Zr  0.03874009  0.63309822  0.11274088     2.10000
Zr670      Zr  0.10844670  0.38200906  0.08897356     1.78800
O671        O  0.98923727  0.58970416  0.13664452    -0.92500
O672        O  0.14764936  0.42924689  0.05493522    -0.40400
O673        O  0.03258168  0.37449164  0.08240997    -0.77000
O674        O  0.04623703  0.38729893  0.99549045    -0.95700
O675        O  0.97098225  0.65092708  0.92035700    -0.89000
O676        O  0.96969088  0.63767404  0.02531966    -0.91800
C677        C  0.20726742  0.63868926  0.08866161     1.01900
C678        C  0.12308406  0.56129859  0.16821522     1.14900
C679        C  0.11828180  0.58679988  0.91946119     1.05600
O680        O  0.10715720  0.37828550  0.92108000    -0.94000
O681        O  0.01072421  0.39247374  0.87683647    -0.89700
O682        O  0.96008809  0.41423323  0.90636153    -0.82900
C683        C  0.97877820  0.41527946  0.87335878     1.12300
O684        O  0.97345290  0.51867415  0.94597207    -0.96000
Zr685      Zr  0.96410925  0.58876037  0.95804471     1.88900
O686        O  0.88917469  0.35307377  0.93234059    -0.72600
O687        O  0.98814794  0.63061506  0.81953110    -0.51900
O688        O  0.92616599  0.56484726  0.86100788    -0.96500
O689        O  0.92118436  0.55066432  0.99726662    -0.53800
O690        O  0.88803480  0.61530577  0.91009885    -0.73100
C691        C  0.87082402  0.64906695  0.90837994     0.99200
O692        O  0.94261165  0.44432596  0.97499459    -0.61900
O693        O  0.06308495  0.33033309  0.21641585    -0.56700
O694        O  0.94961288  0.40079951  0.05975484    -0.93400
O695        O  0.98511128  0.36493347  0.13879337    -0.91800
O696        O  0.14078414  0.39562612  0.18918853    -0.92200
O697        O  0.10144640  0.45071162  0.11110213    -0.91000
C698        C  0.95990542  0.39331404  0.11085984     1.18100
H699        H  0.13583563  0.63587936  0.13944067     0.34000
H700        H  0.04923272  0.41342238  0.98254051     0.44900
H701        H  0.94242384  0.63641618  0.03099986     0.38400
H702        H  0.03207597  0.57319648  0.92256697     0.34900
H703        H  0.17527462  0.43938245  0.08902622     0.26700
H704        H  0.00358027  0.63740345  0.79623097     0.32600
H705        H  0.89934983  0.54787460  0.85735222     0.38500
H706        H  0.17159354  0.40874863  0.20007397     0.33000
H707        H  0.04530926  0.31639797  0.23318862     0.31800
H708        H  0.99087295  0.56317057  0.12198601     0.33500
H709        H  0.89991205  0.53245585  0.96644896     0.32500
H710        H  0.06944802  0.45719289  0.08386236     0.36500
H711        H  0.91112816  0.44244284  0.97218231     0.29200
H712        H  0.13447872  0.51309681  0.03813143     0.33500
H713        H  0.00333756  0.51258698  0.97834971     0.36300
H714        H  0.09303054  0.31705719  0.23193644     0.28900
H715        H  0.96216752  0.45907544  0.01054983     0.41800
H716        H  0.13733540  0.36644869  0.94474250     0.31800
H717        H  0.16042060  0.41270830  0.03534767     0.39500
H718        H  0.90051600  0.56975469  0.00144930     0.31300
H719        H  0.99012517  0.60145265  0.82332580     0.31400
H720        H  0.08375410  0.51168318  0.98883672     0.31600
C721        C  0.25661660  0.63361899  0.10512934    -0.15800
C722        C  0.29058379  0.65859500  0.14018812    -0.31000
H723        H  0.26547355  0.60637359  0.09132168     0.13200
H724        H  0.28218009  0.68457615  0.15712479     0.13800
C725        C  0.79567085  0.67868688  0.88345445    -0.15800
C726        C  0.81981032  0.64997331  0.87606663    -0.31000
H727        H  0.80852223  0.37510220  0.90415449     0.13200
H728        H  0.80139733  0.62431628  0.84952007     0.13800
C729        C  0.12950135  0.56091898  0.84051350    -0.15800
C730        C  0.14539638  0.56838366  0.89540540    -0.31000
H731        H  0.09441060  0.56815533  0.81069604     0.13200
H732        H  0.17897044  0.55777087  0.92511494     0.13800
C733        C  0.28241329  0.51826281  0.87431112    -0.15800
C734        C  0.30706250  0.48742163  0.87357087    -0.31000
H735        H  0.29916828  0.54293547  0.90366544     0.13200
H736        H  0.28925182  0.46204379  0.84602478     0.13800
C737        C  0.61099027  0.40866774  0.85643204    -0.15800
C738        C  0.65364841  0.39456197  0.88274861    -0.31000
H739        H  0.59006833  0.40477860  0.81140543     0.13200
H740        H  0.67558104  0.40162714  0.92693050     0.13800
C741        C  0.45079443  0.56373409  0.14867177    -0.15800
C742        C  0.41271311  0.58552253  0.12577383    -0.31000
H743        H  0.47243529  0.56419852  0.19378516     0.13200
H744        H  0.38973956  0.58283621  0.08102202     0.13800
C745        C  0.77790644  0.50419027  0.12853971    -0.15800
C746        C  0.74614379  0.47618237  0.09613603    -0.31000
H747        H  0.76693514  0.53027233  0.14224311     0.13200
H748        H  0.75766451  0.44913778  0.08532318     0.13800
C749        C  0.94310695  0.41993312  0.14050581    -0.15800
C750        C  0.90564000  0.44163835  0.11301322    -0.31000
H751        H  0.96155049  0.42133181  0.18601167     0.13200
H752        H  0.88485264  0.43787125  0.06794800     0.13800
C753        C  0.43816612  0.62870636  0.79412537    -0.15800
C754        C  0.41813957  0.60579636  0.81817507    -0.31000
H755        H  0.47425163  0.62487842  0.80435515     0.13200
H756        H  0.38323817  0.61154560  0.81128578     0.13800
C757        C  0.26555383  0.65871387  0.66446118    -0.15800
C758        C  0.29221331  0.69026208  0.66500720    -0.31000
H759        H  0.24605305  0.37650422  0.59320578     0.13200
H760        H  0.27615246  0.71612774  0.64072082     0.13800
C761        C  0.10286105  0.44883776  0.69192911    -0.15800
C762        C  0.14362891  0.46867248  0.70733383    -0.31000
H763        H  0.08425271  0.45293200  0.71617703     0.13200
H764        H  0.16424770  0.46237174  0.68620774     0.13800
C765        C  0.92849380  0.55068341  0.30406351    -0.15800
C766        C  0.93999155  0.53934890  0.26449054    -0.31000
H767        H  0.89422263  0.54211545  0.29916058     0.13200
H768        H  0.97512357  0.54488536  0.27044565     0.13800
C769        C  0.79393853  0.66942120  0.38485266    -0.15800
C770        C  0.82427750  0.64191113  0.41410051    -0.31000
H771        H  0.80611080  0.69639160  0.37286224     0.13200
H772        H  0.77604026  0.33649856  0.33118754     0.13800
C773        C  0.63552475  0.35746506  0.18434972    -0.15800
C774        C  0.61884962  0.34040233  0.21667909    -0.31000
H775        H  0.66811452  0.34804929  0.18710593     0.13200
H776        H  0.58463996  0.34772644  0.21084884     0.13800
C777        C  0.15204025  0.53721223  0.21676214    -0.15800
C778        C  0.14019571  0.52812614  0.25697663    -0.31000
H779        H  0.18327601  0.52536136  0.21836513     0.13200
H780        H  0.10740554  0.53755102  0.25359281     0.13800
C781        C  0.14836865  0.43188943  0.39623549    -0.15800
C782        C  0.10447073  0.41761223  0.36813591    -0.31000
H783        H  0.16933969  0.42436192  0.43985219     0.13200
H784        H  0.08451668  0.42181792  0.32331157     0.13800
C785        C  0.31789728  0.50089836  0.38455893    -0.15800
C786        C  0.29023423  0.47281723  0.39024262    -0.31000
H787        H  0.30297970  0.52730036  0.36091553     0.13200
H788        H  0.30556230  0.44765935  0.41674549     0.13800
C789        C  0.65619741  0.60332191  0.71584136    -0.15800
C790        C  0.64148176  0.61913276  0.75044492    -0.31000
H791        H  0.69025487  0.61239439  0.72054806     0.13200
H792        H  0.60640870  0.61204833  0.74380473     0.13800
C793        C  0.42508767  0.36748603  0.31133552    -0.15800
C794        C  0.43801621  0.35333002  0.27399397    -0.31000
H795        H  0.39229162  0.35670508  0.30895999     0.13200
H796        H  0.48540378  0.68818195  0.28894759     0.13800
C797        C  0.43811899  0.40761931  0.63955006    -0.15800
C798        C  0.39777976  0.38581244  0.61592245    -0.31000
H799        H  0.45838242  0.40846036  0.68489523     0.13200
H800        H  0.37580559  0.38714581  0.57098860     0.13800
C801        C  0.62450198  0.57995356  0.37727214    -0.15800
C802        C  0.66419254  0.60243959  0.40196193    -0.31000
H803        H  0.60327459  0.58072142  0.33212691     0.13200
H804        H  0.68694475  0.59941486  0.44646618     0.13800
C805        C  0.78676657  0.50987884  0.64413009    -0.15800
C806        C  0.75772739  0.48073991  0.64492510    -0.31000
H807        H  0.77319468  0.53438134  0.61568008     0.13200
H808        H  0.77172283  0.45525895  0.67128586     0.13800
C809        C  0.92131449  0.46089029  0.80803653    -0.15800
C810        C  0.96289109  0.44453024  0.82785665    -0.31000
H811        H  0.89829954  0.45265019  0.82579130     0.13200
H812        H  0.98442560  0.45048846  0.80737850     0.13800
C813        C  0.94344858  0.55438254  0.67947622    -0.15800
C814        C  0.92864328  0.56355989  0.62539712    -0.31000
H815        H  0.97868479  0.56263786  0.71055830     0.13200
H816        H  0.89471628  0.55214915  0.59422205     0.13800
C817        C  0.90966375  0.86887290  0.71106640     0.80800
N818        N  0.92783106  0.84263176  0.75345208    -0.77500
C819        C  0.89946863  0.82183953  0.76970430     0.83300
N820        N  0.85309695  0.82734462  0.74317655    -0.77400
C821        C  0.83479812  0.85334091  0.70060699     0.83400
N822        N  0.86320555  0.87396865  0.68493736    -0.79100
Zr823      Zr  0.47126632  0.76376546  0.48725253     2.17500
O824        O  0.45906179  0.69247966  0.49277009    -0.50700
O825        O  0.39011713  0.77806909  0.44205728    -0.73900
O826        O  0.44241852  0.75167727  0.55440568    -0.80700
O827        O  0.49320182  0.74666074  0.36110391    -0.82400
O828        O  0.48143830  0.79313083  0.63018991    -0.78100
O829        O  0.44827992  0.72603771  0.40159664    -0.89700
O830        O  0.38513216  0.84469111  0.43047119    -0.75700
O831        O  0.46748438  0.82626706  0.52538833    -0.85200
O832        O  0.46898579  0.81091801  0.42037266    -0.84900
O833        O  0.53844624  0.76931805  0.57695853    -0.71600
O834        O  0.54022318  0.75576418  0.47782092    -0.83700
Zr835      Zr  0.60475288  0.87262486  0.54011946     2.26400
Zr836      Zr  0.53635897  0.83423530  0.61296251     2.06300
Zr837      Zr  0.53967663  0.80522124  0.41341695     2.10000
Zr838      Zr  0.46448054  0.87296562  0.45856609     1.78800
O839        O  0.58735382  0.76665957  0.38483155    -0.92500
O840        O  0.43055399  0.91702066  0.50019206    -0.40400
O841        O  0.53562554  0.86821928  0.45137780    -0.77000
O842        O  0.53425356  0.88229099  0.54662528    -0.95700
O843        O  0.60551355  0.82524652  0.60545219    -0.89000
O844        O  0.60772956  0.80984718  0.50199055    -0.91800
C845        C  0.36689208  0.80951192  0.42762973     1.01900
C846        C  0.46156013  0.72394610  0.36367227     1.14900
C847        C  0.45094752  0.76549880  0.60274415     1.05600
O848        O  0.49461133  0.88238543  0.63788925    -0.94000
O849        O  0.59163261  0.88679940  0.67214454    -0.89700
O850        O  0.63345792  0.90823508  0.62827374    -0.82900
C851        C  0.62363994  0.90880279  0.66913369     1.12300
O852        O  0.59331183  0.69072632  0.56662575    -0.96000
Zr853      Zr  0.60713629  0.76225539  0.56712461     1.88900
O854        O  0.68524541  0.85574454  0.59925572    -0.72600
O855        O  0.57727825  0.80873275  0.70740750    -0.51900
O856        O  0.63327995  0.73641856  0.66091836    -0.96500
O857        O  0.65337213  0.72594680  0.53364272    -0.53800
O858        O  0.68426049  0.79090887  0.62184515    -0.73100
C859        C  0.70500617  0.82464965  0.62603155     0.99200
O860        O  0.61486960  0.94355240  0.52926538    -0.61900
O861        O  0.49080087  0.82810724  0.31917586    -0.56700
O862        O  0.63656310  0.88587799  0.47608742    -0.93400
O863        O  0.59052256  0.85260901  0.39424495    -0.91800
O864        O  0.42226498  0.88495709  0.35852922    -0.92200
O865        O  0.47310784  0.94243504  0.43891104    -0.91000
C866        C  0.62421970  0.87744898  0.42457750     1.18100
H867        H  0.44215715  0.80589799  0.38448494     0.34000
H868        H  0.53512372  0.90867501  0.56124861     0.44900
H869        H  0.63541656  0.80837400  0.49744958     0.38400
H870        H  0.53686764  0.74898911  0.60132442     0.34900
H871        H  0.40259004  0.92676105  0.46799127     0.26700
H872        H  0.55933271  0.81734176  0.72656935     0.32600
H873        H  0.66207765  0.72271068  0.66906755     0.38500
H874        H  0.39263819  0.89590855  0.35302886     0.33000
H875        H  0.49036584  0.85721935  0.32362733     0.31800
H876        H  0.57277094  0.76900343  0.34359451     0.33500
H877        H  0.67800822  0.71435549  0.56769335     0.32500
H878        H  0.50415970  0.95135610  0.46861147     0.36500
H879        H  0.59892142  0.94781697  0.48837243     0.29200
H880        H  0.42572910  0.68859452  0.48251902     0.33500
H881        H  0.56823154  0.68408336  0.52853642     0.36300
H882        H  0.50929258  0.82461208  0.29892573     0.28900
H883        H  0.59471647  0.95607982  0.54274001     0.41800
H884        H  0.46160551  0.87325238  0.61720106     0.31800
H885        H  0.41810306  0.89914823  0.51963799     0.39500
H886        H  0.66998099  0.74642095  0.52256979     0.31300
H887        H  0.57170181  0.77957132  0.70296434     0.31400
H888        H  0.47569418  0.68648549  0.53312989     0.31600
C889        C  0.16743651  0.78616563  0.35273630     0.80800
N890        N  0.13998349  0.80930556  0.30982106    -0.77500
C891        C  0.15874427  0.83876442  0.29161468     0.83300
N892        N  0.20550658  0.84534300  0.31669186    -0.77400
C893        C  0.23377213  0.82259661  0.35954872     0.83400
N894        N  0.21464638  0.79277918  0.37781649    -0.79100
C895        C  0.65782525  0.93996122  0.32743339     0.80800
N896        N  0.63147470  0.96272376  0.28326888    -0.77500
C897        C  0.65139359  0.99130322  0.26493746     0.83300
N898        N  0.69831806  0.99734359  0.29135217    -0.77400
C899        C  0.72548861  0.97501858  0.33569346     0.83400
N900        N  0.70504520  0.94630959  0.35391958    -0.79100
Zr901      Zr  0.96488434  0.92099659  0.49185592     2.17500
O902        O  0.95519520  0.84962950  0.49941046    -0.50700
O903        O  0.88301308  0.93476355  0.44513489    -0.73900
O904        O  0.93819216  0.90704275  0.56101827    -0.80700
O905        O  0.98843653  0.90658368  0.36503365    -0.82400
O906        O  0.97935351  0.94585430  0.63926261    -0.78100
O907        O  0.94260587  0.88484697  0.40372040    -0.89700
O908        O  0.89391656  0.68120736  0.43698548    -0.75700
O909        O  0.96056773  0.98297070  0.53130745    -0.85200
O910        O  0.96124000  0.96935589  0.42585142    -0.84900
O911        O  0.03288806  0.92755302  0.58127546    -0.71600
O912        O  0.03454944  0.91511863  0.48309135    -0.83700
Zr913      Zr  0.11245195  0.70734417  0.55862496     2.26400
Zr914      Zr  0.02958222  0.99139462  0.61916826     2.06300
Zr915      Zr  0.03176152  0.96543154  0.41857091     2.10000
Zr916      Zr  0.97360247  0.70836650  0.47024419     1.78800
O917        O  0.08152468  0.93002012  0.38991782    -0.92500
O918        O  0.94126736  0.75187800  0.51447354    -0.40400
O919        O  0.04626576  0.70513254  0.46701112    -0.77000
O920        O  0.03966589  0.71301520  0.56059576    -0.95700
O921        O  0.09907911  0.98557530  0.61109622    -0.89000
O922        O  0.10024231  0.97149205  0.50656150    -0.91800
C923        C  0.85899281  0.96543521  0.42500677     1.01900
C924        C  0.95626491  0.88371312  0.36582704     1.14900
C925        C  0.94854824  0.91858874  0.61103707     1.05600
O926        O  0.98986328  0.69626151  0.65160252    -0.94800
O927        O  0.07935245  0.72004155  0.67718983    -0.89700
O928        O  0.12559969  0.74561692  0.64134211    -0.82900
C929        C  0.10907372  0.74590686  0.67644437     1.12300
O930        O  0.09536874  0.85291603  0.58797902    -0.96000
Zr931      Zr  0.10222228  0.92335787  0.57207242     1.88900
O932        O  0.19309800  0.68951266  0.61411753    -0.72600
O933        O  0.07482524  0.96640084  0.71320982    -0.51900
O934        O  0.13786182  0.90661298  0.67075630    -0.96500
O935        O  0.13998867  0.88189536  0.53235843    -0.53800
O936        O  0.18018116  0.95256728  0.61421943    -0.73100
C937        C  0.19942952  0.98705954  0.61831002     0.99200
O938        O  0.13154339  0.77839865  0.56411759    -0.61900
O939        O  0.01688312  0.67185260  0.33222733    -0.56700
O940        O  0.14391618  0.72647514  0.49581164    -0.93400
O941        O  0.10363797  0.69239643  0.41312773    -0.91800
O942        O  0.93738929  0.72664196  0.37200064    -0.92200
O943        O  0.98405924  0.77888316  0.45775985    -0.91000
C944        C  0.13485272  0.71840796  0.44519525     1.18100
H945        H  0.93453441  0.96439783  0.38985244     0.34000
H946        H  0.03833558  0.73868882  0.57553669     0.44900
H947        H  0.12764084  0.97066830  0.50127214     0.38400
H948        H  0.03242368  0.90670260  0.60557904     0.34900
H949        H  0.91236768  0.76116421  0.48324259     0.26700
H950        H  0.05724041  0.97318839  0.73362914     0.32600
H951        H  0.16771266  0.89507222  0.67827339     0.38500
H952        H  0.90724248  0.71149083  0.35429963     0.33000
H953        H  0.02232965  0.65240451  0.30850771     0.31800
H954        H  0.06812171  0.93416391  0.34908271     0.33500
H955        H  0.17047930  0.87652258  0.56427075     0.32500
H956        H  0.01456540  0.78675378  0.48944668     0.36500
H957        H  0.16446649  0.78088084  0.57203096     0.29200
H958        H  0.92291813  0.84516323  0.49334542     0.33500
H959        H  0.06499973  0.84384100  0.55705376     0.36300
H960        H  0.98294189  0.66996700  0.31901917     0.28900
H961        H  0.11363970  0.78807544  0.52554453     0.41800
H962        H  0.95771018  0.69007447  0.62230113     0.31800
H963        H  0.93048115  0.73385686  0.53545026     0.39500
H964        H  0.14747890  0.89969014  0.50819542     0.31300
H965        H  0.07131453  0.93712749  0.70873554     0.31400
H966        H  0.97490182  0.84391121  0.53942853     0.31600
C967        C  0.41509641  0.71586766  0.70358616     0.80800
N968        N  0.42196057  0.01660516  0.74422574    -0.77500
C969        C  0.39429047  0.99349483  0.75903686     0.83300
N970        N  0.34757062  0.99595651  0.73047205    -0.77400
C971        C  0.34345088  0.68982533  0.69383194     0.83400
N972        N  0.36809267  0.71675045  0.67978992    -0.79100
C973        C  0.89775410  0.78212608  0.15048475     0.80800
N974        N  0.92849860  0.79964655  0.20040597    -0.77500
C975        C  0.91313590  0.82436690  0.22785963     0.83300
N976        N  0.86737199  0.83196034  0.20472756    -0.77400
C977        C  0.83663310  0.81493871  0.15528362     0.83400
N978        N  0.85190929  0.79007947  0.12804826    -0.79100
Zr979      Zr  0.59366813  0.76278370  0.03015653     2.17500
O980        O  0.59238894  0.69051102  0.02658506    -0.50700
O981        O  0.67578818  0.77506648  0.06354472    -0.73900
O982        O  0.61020094  0.74150875  0.95521092    -0.80700
O983        O  0.58962249  0.76127692  0.17012115    -0.82400
O984        O  0.56845184  0.77798550  0.87812361    -0.78100
O985        O  0.62412579  0.73368551  0.12214149    -0.89700
O986        O  0.69084057  0.84127440  0.08222562    -0.75700
O987        O  0.60219332  0.82201653  0.98741626    -0.85200
O988        O  0.60870142  0.81476494  0.09706080    -0.84900
O989        O  0.52215767  0.76729983  0.94577734    -0.71600
O990        O  0.52817165  0.76127003  0.04855689    -0.83700
Zr991      Zr  0.47822001  0.88001487  0.98620301     2.26400
Zr992      Zr  0.53019184  0.82829315  0.90459689     2.06300
Zr993      Zr  0.54238259  0.81509636  0.11353693     2.10000
Zr994      Zr  0.61717886  0.87351112  0.05436040     1.78800
O995        O  0.49715746  0.77782754  0.15026539    -0.92500
O996        O  0.65428868  0.90806259  0.00529589    -0.40400
O997        O  0.55041938  0.87498381  0.07059452    -0.77000
O998        O  0.54563668  0.88140085  0.97089820    -0.95700
O999        O  0.46377508  0.82753482  0.92036989    -0.89000
O1000       O  0.47069688  0.82063892  0.02987697    -0.91800
C1001       C  0.70341667  0.80573116  0.08046506     1.01900
C1002       C  0.61734817  0.73698258  0.16531131     1.14900
C1003       C  0.59661776  0.75064289  0.90380827     1.05600
O1004       O  0.57492515  0.85875517  0.86192360    -0.94000
O1005       O  0.49363073  0.88754107  0.85438293    -0.89700
O1006       O  0.45690730  0.91553957  0.89921509    -0.82900
C1007       C  0.46803621  0.91385332  0.85917009     1.12300
O1008       O  0.45369667  0.69587929  0.96425445    -0.96000
Zr1009     Zr  0.45717390  0.76821990  0.96437879     1.88900
O1010       O  0.39427515  0.86623691  0.93590216    -0.72600
O1011       O  0.46944209  0.80371454  0.81433199    -0.51900
O1012       O  0.42104720  0.73882070  0.87022353    -0.96500
O1013       O  0.41409311  0.74039193  0.01106805    -0.53800
O1014       O  0.38369331  0.79955283  0.91896608    -0.73100
C1015       C  0.36861710  0.83458586  0.91445610     0.99200
O1016       O  0.48136753  0.95200264  0.99838562    -0.61900
O1017       O  0.59504103  0.84733953  0.20278956    -0.56700
O1018       O  0.45737122  0.89995860  0.05824664    -0.93400
O1019       O  0.50122949  0.86558455  0.13678659    -0.91800
O1020       O  0.66095980  0.89403927  0.15248704    -0.92200
O1021       O  0.62173018  0.94547029  0.06552846    -0.91000
C1022       C  0.47170574  0.89204820  0.11018797     1.18100
H1023       H  0.63682067  0.81091032  0.13129403     0.34000
H1024       H  0.54865947  0.90652161  0.95549618     0.44900
H1025       H  0.44505271  0.82175507  0.03853919     0.38400
H1026       H  0.51772990  0.74496905  0.92104171     0.34900
H1027       H  0.68633941  0.91468884  0.03457335     0.26700
H1028       H  0.47936205  0.81367256  0.78678496     0.32600
H1029       H  0.40625059  0.76106221  0.84506104     0.38500
H1030       H  0.68943585  0.90784354  0.15543084     0.33000
H1031       H  0.58854682  0.83335303  0.23087721     0.31800
H1032       H  0.51410091  0.78263607  0.19128763     0.33500
H1033       H  0.39575157  0.76223027  0.01400024     0.32500
H1034       H  0.59023331  0.95242145  0.05861078     0.36500
H1035       H  0.49760795  0.95737711  0.03929675     0.29200
H1036       H  0.62404458  0.68387801  0.03370998     0.33500
H1037       H  0.42032221  0.68773523  0.94395546     0.36300
H1038       H  0.62637616  0.83922372  0.21060428     0.28900
H1039       H  0.50406153  0.96175149  0.98580630     0.41800
H1040       H  0.58963421  0.88312400  0.88476320     0.31800
H1041       H  0.65791914  0.88724739  0.98180484     0.39500
H1042       H  0.43797580  0.73624180  0.05005855     0.31300
H1043       H  0.47319347  0.77469784  0.81462923     0.31400
H1044       H  0.57223985  0.68288432  0.98681575     0.31600
C1045       C  0.16709336  0.88361907  0.82509141     0.80800
N1046       N  0.21414216  0.88804897  0.85607484    -0.77500
C1047       C  0.24236990  0.86647621  0.84295921     0.83300
N1048       N  0.22332381  0.84060346  0.79873029    -0.77400
C1049       C  0.17676873  0.83559099  0.76828169     0.83400
N1050       N  0.14849578  0.85705966  0.78147535    -0.79100
C1051       C  0.67809507  0.69407047  0.86586222     0.80800
N1052       N  0.72453392  0.69707221  0.88443270    -0.77500
C1053       C  0.74465578  0.67572218  0.85959687     0.83300
N1054       N  0.71249048  0.98846443  0.81022510    -0.77400
C1055       C  0.66551366  0.98558273  0.78983935     0.83400
N1056       N  0.64453918  0.01128986  0.80886267    -0.79100
C1057       C  0.39710468  0.96042801  0.14823044     0.80800
N1058       N  0.35118758  0.96842821  0.12436183    -0.77500
C1059       C  0.33474880  0.99205721  0.15169888     0.83300
N1060       N  0.36434570  0.00758425  0.20270682    -0.77400
C1061       C  0.41006346  0.99971901  0.22715945     0.83400
N1062       N  0.42660641  0.97645967  0.19961920    -0.79100
Zr1063     Zr  0.09526984  0.93039443  0.02890075     2.17500
O1064       O  0.09403696  0.85843181  0.01938653    -0.50700
O1065       O  0.17717644  0.94614947  0.06845284    -0.73900
O1066       O  0.12585141  0.91718558  0.96457431    -0.80700
O1067       O  0.08364201  0.92366600  0.16273519    -0.82400
O1068       O  0.08862742  0.95444677  0.88696536    -0.78100
O1069       O  0.12453567  0.90071248  0.11973852    -0.89700
O1070       O  0.19268930  0.67333996  0.09082887    -0.75700
O1071       O  0.10271397  0.99092555  0.98843212    -0.85200
O1072       O  0.10304901  0.98097159  0.09475760    -0.84900
O1073       O  0.02717229  0.93215645  0.94023554    -0.71600
O1074       O  0.02674575  0.92331516  0.04048957    -0.83700
Zr1075     Zr  0.97730477  0.69987029  0.98750817     2.26400
Zr1076     Zr  0.03382658  0.99469430  0.90158154     2.06300
Zr1077     Zr  0.03359373  0.97550002  0.10472103     2.10000
Zr1078     Zr  0.11702516  0.70065107  0.06687499     1.78800
O1079       O  0.98269785  0.93332834  0.12782762    -0.92500
O1080       O  0.15359967  0.74627816  0.02756231    -0.40400
O1081       O  0.04658931  0.69552380  0.07528612    -0.77000
O1082       O  0.04813471  0.70763518  0.97974027    -0.95700
O1083       O  0.96470339  0.98849310  0.91171771    -0.89000
O1084       O  0.96443746  0.97800063  0.01756790    -0.91800
C1085       C  0.20204807  0.97838619  0.07981933     1.01900
C1086       C  0.11463348  0.90198762  0.16056886     1.14900
C1087       C  0.11887583  0.92926906  0.91635952     1.05600
O1088       O  0.08824440  0.69618455  0.87969718    -0.94000
O1089       O  0.00098507  0.71600626  0.86261746    -0.89700
O1090       O  0.95756206  0.73772851  0.90284156    -0.82900
C1091       C  0.97203116  0.73957366  0.86572443     1.12300
O1092       O  0.96394576  0.85571651  0.94962904    -0.96000
Zr1093     Zr  0.95858386  0.92753313  0.95217118     1.88900
O1094       O  0.89463900  0.68096516  0.93322984    -0.72600
O1095       O  0.98579163  0.95981493  0.81294227    -0.51900
O1096       O  0.92681608  0.90343120  0.85557884    -0.96500
O1097       O  0.91327502  0.89103124  0.98978862    -0.53800
O1098       O  0.88231693  0.95447256  0.90570873    -0.73100
C1099       C  0.86486848  0.98819299  0.90381344     0.99200
O1100       O  0.97486626  0.77112813  0.00205274    -0.61900
O1101       O  0.08068766  0.65899709  0.20862177    -0.56700
O1102       O  0.95362811  0.71802417  0.05792986    -0.93400
O1103       O  0.99763008  0.68357076  0.13619453    -0.91800
O1104       O  0.15961191  0.71243162  0.16773142    -0.92200
O1105       O  0.11628205  0.77032238  0.09037542    -0.91000
C1106       C  0.96820990  0.71017645  0.10995307     1.18100
H1107       H  0.13033424  0.97794509  0.13021799     0.34000
H1108       H  0.05039695  0.73376192  0.96635594     0.44900
H1109       H  0.93734942  0.97732750  0.02359248     0.38400
H1110       H  0.02663078  0.91060458  0.91620169     0.34900
H1111       H  0.18509308  0.75223175  0.05860070     0.26700
H1112       H  0.95350656  0.96548715  0.80418387     0.32600
H1113       H  0.89369508  0.89657728  0.84387418     0.38500
H1114       H  0.18853795  0.72709042  0.17370292     0.33000
H1115       H  0.07367221  0.63944897  0.23136285     0.31800
H1116       H  0.98008957  0.90773034  0.10829499     0.33500
H1117       H  0.88340736  0.88364034  0.95672372     0.32500
H1118       H  0.08462404  0.77843779  0.06439114     0.36500
H1119       H  0.99454472  0.77619662  0.04270266     0.29200
H1120       H  0.12534556  0.85242067  0.02459904     0.33500
H1121       H  0.93254800  0.84509859  0.92296873     0.36300
H1122       H  0.11390696  0.65592602  0.21939262     0.28900
H1123       H  0.99339406  0.78374651  0.98531689     0.41800
H1124       H  0.12054723  0.69354311  0.90929715     0.31800
H1125       H  0.15886009  0.72981487  0.00072516     0.39500
H1126       H  0.90518487  0.91099508  0.01045545     0.31300
H1127       H  0.99146609  0.97490120  0.78501610     0.31400
H1128       H  0.07312073  0.85252156  0.97925071     0.31600
C1129       C  0.25177364  0.97356649  0.09684249    -0.15800
C1130       C  0.28505418  0.00060102  0.12797534    -0.31000
H1131       H  0.26166946  0.94518772  0.08733483     0.13200
H1132       H  0.27576298  0.02764137  0.14168981     0.13800
C1133       C  0.78948679  0.01940237  0.87467037    -0.15800
C1134       C  0.81375200  0.98878108  0.87233310    -0.31000
H1135       H  0.81401490  0.70313763  0.91262115     0.13200
H1136       H  0.79533542  0.96189019  0.84922855     0.13800
C1137       C  0.13612348  0.90470703  0.84152056    -0.15800
C1138       C  0.14964113  0.91328611  0.89557372    -0.31000
H1139       H  0.10064767  0.90940619  0.81029725     0.13200
H1140       H  0.18369841  0.90478635  0.92697898     0.13800
C1141       C  0.29324416  0.86838551  0.87894350    -0.15800
C1142       C  0.31810907  0.83708942  0.88017056    -0.31000
H1143       H  0.30977213  0.89417243  0.90607648     0.13200
H1144       H  0.30016623  0.81061965  0.85535083     0.13800
C1145       C  0.61454870  0.72806635  0.87170503    -0.15800
C1146       C  0.65826064  0.71614494  0.89623261    -0.31000
H1147       H  0.59267403  0.72310759  0.82703078     0.13200
H1148       H  0.68115652  0.72451881  0.93971488     0.13800
C1149       C  0.45385540  0.91556907  0.14223509    -0.15800
C1150       C  0.41444491  0.93556272  0.11698398    -0.31000
H1151       H  0.47333479  0.91613697  0.18765783     0.13200
H1152       H  0.39339438  0.93285494  0.07183746     0.13800
C1153       C  0.78719249  0.82408063  0.13249414    -0.15800
C1154       C  0.75290284  0.79865910  0.09873246    -0.31000
H1155       H  0.77882957  0.85097053  0.14762703     0.13200
H1156       H  0.76146913  0.77045055  0.08698917     0.13800
C1157       C  0.95151759  0.73432754  0.14286736    -0.15800
C1158       C  0.91346639  0.75609899  0.11853331    -0.31000
H1159       H  0.97118573  0.73436339  0.18826291     0.13200
H1160       H  0.89208046  0.75399491  0.07340137     0.13800
C1161       C  0.41369429  0.96526686  0.80525745    -0.15800
C1162       C  0.45109232  0.94442296  0.81560797    -0.31000
H1163       H  0.39418000  0.95890349  0.82816219     0.13200
H1164       H  0.46821952  0.94837902  0.78943419     0.13800
C1165       C  0.25034085  0.98952839  0.65143564    -0.15800
C1166       C  0.27706778  0.02143321  0.65347245    -0.31000
H1167       H  0.28186446  0.63208207  0.68627736     0.13200
H1168       H  0.26172050  0.04704366  0.62809408     0.13800
C1169       C  0.12426868  0.77888295  0.71795466    -0.15800
C1170       C  0.15821591  0.80517592  0.72354832    -0.31000
H1171       H  0.10820160  0.78108426  0.74536713     0.13200
H1172       H  0.17653334  0.80160891  0.69888021     0.13800
C1173       C  0.93045674  0.85579319  0.31807515    -0.15800
C1174       C  0.94552797  0.84474857  0.28127479    -0.31000
H1175       H  0.89604430  0.84562403  0.31109444     0.13200
H1176       H  0.98080200  0.85233632  0.28911716     0.13800
C1177       C  0.77678920  0.98332269  0.36338934    -0.15800
C1178       C  0.80759458  0.95865262  0.39976904    -0.31000
H1179       H  0.78962344  0.00988008  0.35130034     0.13200
H1180       H  0.81127399  0.61398925  0.42276142     0.13800
C1181       C  0.64599036  0.71217140  0.21324905    -0.15800
C1182       C  0.63391280  0.69992358  0.25243904    -0.31000
H1183       H  0.67859055  0.70296764  0.21575678     0.13200
H1184       H  0.59992976  0.70604586  0.24835090     0.13800
C1185       C  0.14299103  0.87767722  0.20880562    -0.15800
C1186       C  0.12835932  0.86322190  0.24448870    -0.31000
H1187       H  0.17688750  0.87003383  0.21381900     0.13200
H1188       H  0.09311999  0.86763329  0.23733162     0.13800
C1189       C  0.14425957  0.75501821  0.37122938    -0.15800
C1190       C  0.16270911  0.74176701  0.42376225    -0.31000
H1191       H  0.10837606  0.74650258  0.34256697     0.13200
H1192       H  0.19700398  0.75308772  0.45400899     0.13800
C1193       C  0.31595564  0.80307040  0.40728340    -0.15800
C1194       C  0.28478715  0.83120304  0.38454872    -0.31000
H1195       H  0.30339678  0.77308221  0.40927394     0.13200
H1196       H  0.29663933  0.86076927  0.37955543     0.13800
C1197       C  0.65240461  0.93688214  0.71535070    -0.15800
C1198       C  0.63703301  0.95448650  0.74793965    -0.31000
H1199       H  0.68631786  0.94591869  0.71952276     0.13200
H1200       H  0.60185762  0.94787243  0.74124890     0.13800
C1201       C  0.43585283  0.69450448  0.31860942    -0.15800
C1202       C  0.45045780  0.68107453  0.28267919    -0.31000
H1203       H  0.40184063  0.68454951  0.31337638     0.13200
H1204       H  0.47670882  0.02737645  0.29012294     0.13800
C1205       C  0.42328286  0.74765837  0.62772336    -0.15800
C1206       C  0.44109206  0.74135550  0.68276915    -0.31000
H1207       H  0.38908886  0.73497413  0.59927567     0.13200
H1208       H  0.47705388  0.75001904  0.71085802     0.13800
C1209       C  0.65160306  0.89895509  0.40059077    -0.15800
C1210       C  0.63369140  0.91016584  0.34698476    -0.31000
H1211       H  0.68589115  0.91080042  0.43008799     0.13200
H1212       H  0.59799033  0.90120264  0.31825094     0.13800
C1213       C  0.78414587  0.85633963  0.66707214    -0.15800
C1214       C  0.75505264  0.82645437  0.66499622    -0.31000
H1215       H  0.77108042  0.88130930  0.63939295     0.13200
H1216       H  0.76892893  0.80062381  0.69065228     0.13800
C1217       C  0.91768835  0.79191594  0.81395766    -0.15800
C1218       C  0.95529985  0.77136892  0.82396382    -0.31000
H1219       H  0.89755869  0.78448348  0.83579929     0.13200
H1220       H  0.97346277  0.77702716  0.79928150     0.13800
C1221       C  0.93933034  0.88971218  0.69034349    -0.15800
C1222       C  0.92141333  0.89941408  0.63610042    -0.31000
H1223       H  0.97609632  0.89501220  0.71834290     0.13200
H1224       H  0.88565027  0.89048184  0.60751494     0.13800
loop_ 
_geom_bond_atom_site_label_1 
_geom_bond_atom_site_label_2 
_geom_bond_distance 
_geom_bond_site_symmetry_2 
_ccdc_geom_bond_type 
C1            N2   1.364       .  A
C1            N6   1.356       .  A
C1          C405   1.473       .  S
N2            C3   1.363       .  A
C3            N4   1.359       .  A
C3          C401   1.480       .  S
N4            C5   1.352       .  A
C5            N6   1.357       .  A
C5          C397   1.473       .  S
Zr7           O8   2.441       .  S
Zr7           O9   2.447       .  S
Zr7          O10   2.415       .  S
Zr7          O13   2.438       .  S
Zr7          O15   2.382       .  S
Zr7          O16   2.378       .  S
Zr7          O17   2.414       .  S
Zr7          O18   2.396       .  S
O8           H64   0.990       .  S
O8           H72   0.990       .  S
O9           C29   1.287       .  A
O10          C31   1.281       .  A
O11         Zr21   2.422       .  S
O11          C30   1.283       .  A
O12         Zr20   2.451       .  S
O12          C31   1.288       .  A
O13          C30   1.286       .  A
O14         Zr22   2.427       .  S
O14          C29   1.282       .  A
O15         Zr20   2.400       .  S
O15         Zr22   2.374       .  S
O16         Zr21   2.380       .  S
O16         Zr22   2.378       .  S
O16          H51   0.966       .  S
O17         Zr20   2.407       .  S
O17         Zr37   2.404       .  S
O17          H54   0.966       .  S
O18         Zr21   2.394       .  S
O18         Zr37   2.402       .  S
Zr19         O44   2.436       .  S
Zr19         O38   2.410       .  S
Zr19         O46   2.406       .  S
Zr19         O34   2.411       .  S
Zr19         O25   2.395       .  S
Zr19         O26   2.396       .  S
Zr19         O27   2.373       .  S
Zr19         O28   2.373       .  S
Zr20         O39   2.438       .  S
Zr20         O32   2.436       .  S
Zr20         O33   2.470       .  S
Zr20         O26   2.397       .  S
Zr20         O27   2.387       .  S
Zr21         O23   2.435       .  S
Zr21         O45   2.437       .  S
Zr21         O47   2.429       .  S
Zr21         O25   2.392       .  S
Zr21         O28   2.374       .  S
Zr22         O48   2.438       .  S
Zr22         O49   2.436       .  S
Zr22         O24   2.437       .  S
Zr22         O25   2.397       .  S
Zr22         O26   2.399       .  S
O23          H60   0.990       .  S
O24          H55   0.990       .  S
O24          H69   0.990       .  S
O26          H52   0.966       .  S
O27         Zr37   2.372       .  S
O28         Zr37   2.370       .  S
O28          H53   0.965       .  S
C29         C377   1.479       .  S
C30         C385   1.473       .  S
C31         C389   1.470       .  S
O32          H68   0.990       .  S
O33          C35   1.292       .  A
O34          C35   1.280       .  A
C35         C381   1.480       .  S
O36         Zr37   2.439       .  S
O36          H65   0.990       .  S
Zr37         O40   2.437       .  S
Zr37         O41   2.439       .  S
Zr37         O42   2.445       .  S
O38          C43   1.280       .  A
O39          H56   0.990       .  S
O39          H71   0.990       .  S
O40          H57   0.990       .  S
O41          H61   0.990       .  S
O41          H70   0.990       .  S
O42          C43   1.287       .  A
C43         C398   1.471       .  S
O44          H63   0.990       .  S
O44          H67   0.990       .  S
O45          H59   0.990       .  S
O45          H66   0.990       .  S
O46          C50   1.279       .  A
O47          C50   1.284       .  A
O48          H58   0.990       .  S
O49          H62   0.990       .  S
C50         C393   1.461       .  S
C73          N74   1.366       .  A
C73          N78   1.363       .  A
C73         C373   1.488       .  S
N74          C75   1.365       .  A
C75          N76   1.357       .  A
C75         C370   1.480       .  S
N76          C77   1.357       .  A
C77          N78   1.355       .  A
C77         C378   1.482       .  S
C79          N80   1.353       .  A
C79          N84   1.357       .  A
C79         C394   1.465       .  S
N80          C81   1.356       .  A
C81          N82   1.366       .  A
C81         C774   1.479       .  S
N82          C83   1.366       .  A
C83          N84   1.353       .  A
C83         C361   1.483       .  S
Zr85         O86   2.440       .  S
Zr85         O87   2.469       .  S
Zr85         O88   2.441       .  S
Zr85         O91   2.426       .  S
Zr85         O93   2.381       .  S
Zr85         O94   2.374       .  S
Zr85         O95   2.413   1_655  S
Zr85         O96   2.415   1_655  S
O86         H142   0.990       .  S
O86         H150   0.990       .  S
O87         C107   1.291       .  A
O88         C109   1.286       .  A
O89         Zr99   2.437   1_655  S
O89         C108   1.285       .  A
O90         Zr98   2.438   1_655  S
O90         C109   1.284       .  A
O91         C108   1.283       .  A
O92        Zr100   2.471       .  S
O92         C923   1.291   1_545  A
O93         Zr98   2.398   1_655  S
O93        Zr508   2.386       .  S
O94         Zr99   2.384   1_655  S
O94        Zr508   2.372       .  S
O94         H129   0.966       .  S
O95         Zr98   2.397       .  S
O95        Zr115   2.400       .  S
O95         H132   0.965       .  S
O96         Zr99   2.392       .  S
O96        Zr115   2.416       .  S
Zr97        O122   2.438       .  S
Zr97        O116   2.437       .  S
Zr97        O124   2.420       .  S
Zr97        O112   2.423       .  S
Zr97        O103   2.404       .  S
Zr97        O104   2.410       .  S
Zr97        O921   2.374   1_545  S
Zr97        O922   2.378   1_545  S
Zr98        O117   2.438       .  S
Zr98        O518   2.435   1_455  S
Zr98        O519   2.436       .  S
Zr98        O105   2.396       .  S
Zr98        O512   2.396       .  S
Zr99        O101   2.435       .  S
Zr99        O531   2.440   1_455  S
Zr99        O533   2.424       .  S
Zr99        O106   2.388       .  S
Zr99        O511   2.392       .  S
Zr100       O126   2.436       .  S
Zr100       O127   2.436       .  S
Zr100       O102   2.436       .  S
Zr100       O103   2.412   1_655  S
Zr100       O104   2.416   1_655  S
Zr100       O909   2.368   1_545  S
Zr100       O910   2.369   1_545  S
O101        H138   0.990       .  S
O102        H133   0.990       .  S
O102        H147   0.990       .  S
O103       Zr915   2.391   1_545  S
O104       Zr914   2.398   1_545  S
O104        H130   0.966       .  S
O105       Zr115   2.373       .  S
O105       Zr505   2.377       .  S
O106       Zr115   2.368       .  S
O106       Zr505   2.383       .  S
O106        H131   0.965       .  S
C107        C362   1.480       .  S
C107        O500   1.277       .  A
C108        C357   1.474       .  S
C109        C406   1.481       .  S
O110       Zr914   2.436   1_645  S
O110        H146   0.990       .  S
O111       Zr914   2.467   1_545  S
O111        C113   1.291       .  A
O112        C113   1.282       .  A
C113        C353   1.486       .  S
O114       Zr115   2.440       .  S
O114        H143   0.990       .  S
Zr115       O118   2.439       .  S
Zr115       O119   2.439       .  S
Zr115       O120   2.463       .  S
O116        C937   1.285   1_545  A
O117        H134   0.990       .  S
O117        H149   0.990       .  S
O118        H135   0.990       .  S
O119        H139   0.990       .  S
O119        H148   0.990       .  S
O120        C121   1.290       .  A
C121        C349   1.487       .  S
C121        O524   1.283       .  A
O122        H141   0.990       .  S
O122        H145   0.990       .  S
O123       Zr915   2.437   1_655  S
O123        H137   0.990   1_565  S
O123        H144   0.990       .  S
O124        C128   1.282       .  A
O125       Zr915   2.458   1_545  S
O125        C128   1.288       .  A
O126        H136   0.990       .  S
O127        H140   0.990       .  S
C128        C374   1.477       .  S
C151        N156   1.361       .  A
C151        N968   1.362       .  A
C151        C390   1.480       .  S
N152        C153   1.367       .  A
N152        C559   1.368       .  A
C153        N154   1.359       .  A
C153        C345   1.491       .  S
N154        C563   1.355       .  A
C155        N156   1.355       .  A
C155        N970   1.357   1_545  A
C155       C1166   1.476       .  S
C157        N158   1.365       .  A
C157        N162   1.364       .  A
C157        C342   1.485       .  S
N158        C159   1.361       .  A
C159        N160   1.357       .  A
C159        C358   1.478       .  S
N160        C161   1.352       .  A
C161        N162   1.363       .  A
C161        C337   1.482       .  S
Zr163       O164   2.438   1_554  S
Zr163       O165   2.408       .  S
Zr163       O166   2.415   1_554  S
Zr163       O169   2.433       .  S
Zr163       O171   2.383   1_554  S
Zr163       O172   2.377       .  S
Zr163       O173   2.396   1_554  S
Zr163       O174   2.393       .  S
O164        H220   0.990       .  S
O164        H228   0.990       .  S
O165        C185   1.279       .  A
O166        C187   1.283       .  A
O167       Zr177   2.449       .  S
O167        C186   1.289       .  A
O168       Zr176   2.440       .  S
O168        C187   1.285       .  A
O169        C186   1.285       .  A
O170       Zr178   2.462       .  S
O170        C185   1.290       .  A
O171       Zr176   2.395       .  S
O171       Zr178   2.369   1_556  S
O172       Zr177   2.391       .  S
O172       Zr178   2.365       .  S
O172        H207   0.966       .  S
O173       Zr176   2.403       .  S
O173       Zr193   2.383       .  S
O173        H210   0.966       .  S
O174       Zr177   2.398       .  S
O174       Zr193   2.391   1_554  S
Zr175       O200   2.439       .  S
Zr175       O194   2.461       .  S
Zr175       O202   2.438   1_556  S
Zr175       O190   2.442       .  S
Zr175       O181   2.410   1_556  S
Zr175       O182   2.413       .  S
Zr175       O183   2.374       .  S
Zr175       O184   2.383   1_556  S
Zr176       O195   2.436       .  S
Zr176       O188   2.436       .  S
Zr176       O189   2.454       .  S
Zr176       O182   2.395       .  S
Zr176       O183   2.386       .  S
Zr177       O179   2.435       .  S
Zr177       O201   2.438       .  S
Zr177       O203   2.449       .  S
Zr177       O181   2.390       .  S
Zr177       O184   2.395       .  S
Zr178       O204   2.437       .  S
Zr178       O205   2.436       .  S
Zr178       O180   2.435   1_554  S
Zr178       O181   2.407       .  S
Zr178       O182   2.409   1_554  S
O179        H216   0.990       .  S
O180        H211   0.990   1_556  S
O180        H225   0.990       .  S
O182        H208   0.966       .  S
O183       Zr193   2.379       .  S
O184       Zr193   2.384   1_554  S
O184        H209   0.966       .  S
C185        C338   1.481       .  S
C186        C365   1.480       .  S
C187        C329   1.469       .  S
O188        H224   0.990       .  S
O189        C191   1.288       .  A
O190        C191   1.286       .  A
C191        C346   1.486       .  S
O192       Zr193   2.437       .  S
O192        H221   0.990       .  S
Zr193       O196   2.440       .  S
Zr193       O197   2.439       .  S
Zr193       O198   2.399       .  S
O194        C199   1.291       .  A
O195        H212   0.990       .  S
O195        H227   0.990       .  S
O196        H213   0.990       .  S
O197        H217   0.990   1_556  S
O197        H226   0.990   1_556  S
O198        C199   1.277       .  A
C199        C326   1.476       .  S
O200        H219   0.990   1_556  S
O200        H223   0.990       .  S
O201        H215   0.990       .  S
O201        H222   0.990       .  S
O202        C206   1.287       .  A
O203        C206   1.287       .  A
O204        H214   0.990       .  S
O205        H218   0.990       .  S
C206        C333   1.488       .  S
C229        N230   1.357       .  A
C229        N234   1.359       .  A
C229        C321   1.474       .  S
N230        C231   1.354       .  A
C231        N232   1.365       .  A
C231        C325   1.481       .  S
N232        C233   1.364       .  A
C233        N234   1.359       .  A
C233        C354   1.488       .  S
C235        N236   1.355       .  A
C235       N1056   1.359       .  A
C235        C330   1.465       .  S
N236        C237   1.354       .  A
C237       N1054   1.362   1_545  A
C237       C1133   1.478       .  S
N238        C239   1.367       .  A
N238        C645   1.364       .  A
C239        N240   1.359       .  A
C239        C382   1.485       .  S
N240        C643   1.358       .  A
C241        N242   1.356       .  A
C241        N246   1.365       .  A
C241        C334   1.480       .  S
N242        C243   1.355       .  A
C243        N244   1.359       .  A
C243        C314   1.481       .  S
N244        C245   1.364       .  A
C245        N246   1.366       .  A
C245        C794   1.489       .  S
Zr247       O248   2.437       .  S
Zr247       O249   2.437       .  S
Zr247       O250   2.427   1_554  S
Zr247       O253   2.440       .  S
Zr247       O255   2.381       .  S
Zr247       O256   2.378       .  S
Zr247       O257   2.405   1_554  S
Zr247       O258   2.397       .  S
O248        H304   0.990       .  S
O248        H312   0.990       .  S
O249        C269   1.285       .  A
O250        C271   1.282       .  A
O251       Zr261   2.439       .  S
O251        C270   1.285       .  A
O252       Zr260   2.440       .  S
O252        C271   1.285       .  A
O253        C270   1.288       .  A
O254       Zr262   2.462       .  S
O254       C1085   1.290   1_545  A
O255       Zr260   2.393   1_554  S
O255       Zr670   2.374       .  S
O256       Zr261   2.396       .  S
O256       Zr670   2.376       .  S
O256        H291   0.967       .  S
O257       Zr260   2.401       .  S
O257       Zr277   2.387   1_455  S
O257        H294   0.965       .  S
O258       Zr261   2.390       .  S
O258       Zr277   2.395   1_454  S
Zr259       O284   2.434       .  S
Zr259       O278   2.443       .  S
Zr259       O286   2.430   1_556  S
Zr259       O274   2.419       .  S
Zr259       O265   2.405   1_656  S
Zr259       O266   2.412   1_655  S
Zr259      O1083   2.374   1_545  S
Zr259      O1084   2.376   1_546  S
Zr260       O279   2.437       .  S
Zr260       O680   2.436       .  S
Zr260       O681   2.432       .  S
Zr260       O267   2.394   1_455  S
Zr260       O674   2.401       .  S
Zr261       O263   2.436   1_455  S
Zr261       O693   2.440       .  S
Zr261       O695   2.426   1_455  S
Zr261       O268   2.401   1_455  S
Zr261       O673   2.394       .  S
Zr262       O288   2.438       .  S
Zr262       O289   2.434       .  S
Zr262       O264   2.435       .  S
Zr262       O265   2.409       .  S
Zr262       O266   2.409   1_554  S
Zr262      O1071   2.360   1_544  S
Zr262      O1072   2.366   1_545  S
O263        H300   0.990       .  S
O264        H295   0.990       .  S
O264        H309   0.990   1_554  S
O265      Zr1077   2.392   1_545  S
O266      Zr1076   2.403   1_545  S
O266        H292   0.966       .  S
O267       Zr277   2.377       .  S
O267       Zr667   2.376       .  S
O268       Zr277   2.385   1_554  S
O268       Zr667   2.384   1_554  S
O268        H293   0.966       .  S
C269        C313   1.483       .  S
C269        O662   1.283       .  A
C270        C369   1.486       .  S
C271        C322   1.468       .  S
O272      Zr1076   2.435   1_545  S
O272        H308   0.990       .  S
O273      Zr1076   2.447   1_645  S
O273        C275   1.287       .  A
O274        C275   1.282       .  A
C275        C402   1.474       .  S
O276       Zr277   2.432       .  S
O276        H305   0.991       .  S
Zr277       O280   2.438       .  S
Zr277       O281   2.439       .  S
Zr277       O282   2.412       .  S
O278       C1099   1.287   1_545  A
O279        H296   0.990       .  S
O279        H311   0.990       .  S
O280        H297   0.990       .  S
O281        H301   0.990   1_556  S
O281        H310   0.990   1_556  S
O282        C283   1.278       .  A
C283        C318   1.480       .  S
C283        O686   1.288       .  A
O284        H303   0.990   1_556  S
O284        H307   0.990       .  S
O285      Zr1077   2.439   1_545  S
O285        H299   0.990   1_545  S
O285        H306   0.990       .  S
O286        C290   1.285       .  A
O287      Zr1077   2.460   1_645  S
O287        C290   1.290       .  A
O288        H298   0.990       .  S
O289        H302   0.990       .  S
C290        C341   1.488       .  S
C313        C314   1.345       .  D
C313        H315   1.087       .  S
C314        H316   1.087       .  S
C317        C645   1.476       .  S
C317        C318   1.339       .  D
C317        H727   1.087       .  S
C318        H320   1.087       .  S
H319       C1133   1.087       .  S
C321        C322   1.342       .  D
C321        H323   1.087       .  S
C322        H324   1.087       .  S
C325        C326   1.338       .  D
C325        H327   1.087       .  S
C326        H328   1.087       .  S
C329        C330   1.341       .  D
C329        H331   1.087       .  S
C330        H332   1.088       .  S
C333        C334   1.345       .  D
C333        H335   1.087       .  S
C334        H336   1.087       .  S
C337        C338   1.340       .  D
C337        H339   1.087       .  S
C338        H340   1.087       .  S
C341        C342   1.350       .  D
C341        H343   1.087       .  S
C342        H344   1.087       .  S
C345        C346   1.352       .  D
C345        H347   1.086       .  S
C346        H348   1.087       .  S
C349        C350   1.344       .  D
C349        H759   1.087       .  S
C350        C563   1.486       .  S
C350        H352   1.087       .  S
H351       C1165   1.087       .  S
C353        C354   1.344       .  D
C353        H355   1.087       .  S
C354        H356   1.087       .  S
C357        C358   1.345       .  D
C357        H359   1.088       .  S
C358        H360   1.086       .  S
C361        C362   1.338       .  D
C361        H363   1.087       .  S
C362        H772   1.087       .  S
H364       C1178   1.087       .  S
C365        C366   1.344       .  D
C365        H367   1.087       .  S
C366        C897   1.481   1_545  S
C366        H368   1.087       .  S
C369        C370   1.345       .  D
C369        H371   1.087       .  S
C370        H372   1.087       .  S
C373        C374   1.347       .  D
C373        H375   1.086       .  S
C374        H376   1.087       .  S
C377        C378   1.345       .  D
C377        H379   1.087       .  S
C378        H380   1.086       .  S
C381        C382   1.341       .  D
C381        H383   1.087       .  S
C382        H384   1.087       .  S
C385        C386   1.347       .  D
C385        H387   1.087       .  S
C386       C1061   1.474   1_545  S
C386       H1204   1.086       .  S
H388        C794   1.086       .  S
C389        C390   1.343       .  D
C389        H391   1.087       .  S
C390        H392   1.087       .  S
C393        C394   1.338       .  D
C393        H395   1.088       .  S
C394        H396   1.087       .  S
C397        C398   1.339       .  D
C397        H399   1.086       .  S
C398        H400   1.088       .  S
C401        C402   1.345       .  D
C401        H403   1.086       .  S
C402        H404   1.088       .  S
C405        C406   1.343       .  D
C405        H407   1.086       .  S
C406        H408   1.087       .  S
C409        N410   1.363       .  A
C409        N414   1.360       .  A
C409        C813   1.484       .  S
N410        C411   1.365       .  A
C411        N412   1.358       .  A
C411        C809   1.480       .  S
N412        C413   1.358       .  A
C413        N414   1.355       .  A
C413        C805   1.477       .  S
Zr415       O416   2.441       .  S
Zr415       O417   2.443       .  S
Zr415       O418   2.459       .  S
Zr415       O421   2.433       .  S
Zr415       O423   2.382       .  S
Zr415       O424   2.384       .  S
Zr415       O425   2.408       .  S
Zr415       O426   2.409       .  S
O416        H472   0.990       .  S
O416        H480   0.990       .  S
O417        C437   1.287       .  A
O418        C439   1.288       .  A
O419       Zr429   2.452       .  S
O419        C438   1.288       .  A
O420       Zr428   2.454       .  S
O420        C439   1.288       .  A
O421        C438   1.285       .  A
O422       Zr430   2.414       .  S
O422        C437   1.279       .  A
O423       Zr428   2.398       .  S
O423       Zr430   2.384       .  S
O424       Zr429   2.398       .  S
O424       Zr430   2.379       .  S
O424        H459   0.965       .  S
O425       Zr428   2.401       .  S
O425       Zr445   2.395       .  S
O425        H462   0.965       .  S
O426       Zr429   2.393       .  S
O426       Zr445   2.397       .  S
Zr427       O452   2.440       .  S
Zr427       O446   2.429       .  S
Zr427       O454   2.438       .  S
Zr427       O442   2.440       .  S
Zr427       O433   2.396       .  S
Zr427       O434   2.408       .  S
Zr427       O435   2.379       .  S
Zr427       O436   2.387       .  S
Zr428       O447   2.437       .  S
Zr428       O440   2.434       .  S
Zr428       O441   2.445       .  S
Zr428       O434   2.407       .  S
Zr428       O435   2.395       .  S
Zr429       O431   2.435       .  S
Zr429       O453   2.440       .  S
Zr429       O455   2.450       .  S
Zr429       O433   2.392       .  S
Zr429       O436   2.400       .  S
Zr430       O456   2.437       .  S
Zr430       O457   2.436       .  S
Zr430       O432   2.436       .  S
Zr430       O433   2.385       .  S
Zr430       O434   2.398       .  S
O431        H468   0.990       .  S
O432        H463   0.990       .  S
O432        H477   0.990       .  S
O434        H460   0.966       .  S
O435       Zr445   2.373       .  S
O436       Zr445   2.385       .  S
O436        H461   0.966       .  S
C437        C785   1.477       .  S
C438        C793   1.484       .  S
C439        C797   1.495       .  S
O440        H476   0.990       .  S
O441        C443   1.287       .  A
O442        C443   1.284       .  A
C443        C789   1.483       .  S
O444       Zr445   2.434       .  S
O444        H473   0.990       .  S
Zr445       O448   2.436       .  S
Zr445       O449   2.439       .  S
Zr445       O450   2.428       .  S
O446        C451   1.283       .  A
O447        H464   0.990       .  S
O447        H479   0.990       .  S
O448        H465   0.990       .  S
O449        H469   0.990       .  S
O449        H478   0.989       .  S
O450        C451   1.282       .  A
C451        C806   1.477       .  S
O452        H471   0.989       .  S
O452        H475   0.990       .  S
O453        H467   0.990       .  S
O453        H474   0.990       .  S
O454        C458   1.287       .  A
O455        C458   1.288       .  A
O456        H466   0.990       .  S
O457        H470   0.990       .  S
C458        C801   1.488       .  S
C481        N482   1.355       .  A
C481        N486   1.352       .  A
C481        C781   1.460       .  S
N482        C483   1.355       .  A
C483        N484   1.365       .  A
C483        C778   1.474       .  S
N484        C485   1.363       .  A
C485        N486   1.353       .  A
C485        C786   1.473       .  S
C487        N488   1.364       .  A
C487        N492   1.360       .  A
C487        C802   1.482       .  S
N488        C489   1.363       .  A
C489        N490   1.361       .  A
C489       C1182   1.483       .  S
N490        C491   1.356       .  A
C491        N492   1.360       .  A
C491        C769   1.483       .  S
Zr493       O494   2.435       .  S
Zr493       O495   2.418       .  S
Zr493       O496   2.427       .  S
Zr493       O499   2.411       .  S
Zr493       O501   2.372       .  S
Zr493       O502   2.384       .  S
Zr493       O503   2.393   1_655  S
Zr493       O504   2.402   1_655  S
O494        H550   0.990       .  S
O494        H558   0.990       .  S
O495        C515   1.281       .  A
O496        C517   1.283       .  A
O497       Zr507   2.467   1_655  S
O497        C516   1.291       .  A
O498       Zr506   2.452   1_655  S
O498        C517   1.288       .  A
O499        C516   1.281       .  A
O500       Zr508   2.402       .  S
O501       Zr506   2.389   1_655  S
O501       Zr916   2.376       .  S
O502       Zr507   2.395   1_655  S
O502       Zr916   2.359       .  S
O502        H537   0.965       .  S
O503       Zr506   2.393       .  S
O503       Zr523   2.390       .  S
O503        H540   0.966       .  S
O504       Zr507   2.402       .  S
O504       Zr523   2.407       .  S
Zr505       O530   2.440       .  S
Zr505       O524   2.426       .  S
Zr505       O532   2.417       .  S
Zr505       O520   2.441       .  S
Zr505       O511   2.394       .  S
Zr505       O512   2.399       .  S
Zr506       O525   2.436       .  S
Zr506       O926   2.435   1_455  S
Zr506       O927   2.435       .  S
Zr506       O920   2.403       .  S
Zr506       O513   2.397       .  S
Zr507       O509   2.435       .  S
Zr507       O939   2.437       .  S
Zr507       O941   2.466       .  S
Zr507       O919   2.401       .  S
Zr507       O514   2.397       .  S
Zr508       O534   2.436       .  S
Zr508       O535   2.434       .  S
Zr508       O510   2.437       .  S
Zr508       O511   2.382   1_655  S
Zr508       O512   2.389   1_655  S
O509        H546   0.990       .  S
O510        H541   0.990       .  S
O510        H555   0.990       .  S
O512        H538   0.966       .  S
O513       Zr913   2.377       .  S
O513       Zr523   2.379       .  S
O514       Zr913   2.378       .  S
O514       Zr523   2.379       .  S
O514        H539   0.966       .  S
C515        C770   1.481       .  S
C515        O908   1.288       .  A
C516        C765   1.476       .  S
C517        C814   1.477       .  S
O518        H554   0.990       .  S
O519        C521   1.285       .  A
O520        C521   1.288       .  A
C521        C761   1.479       .  S
O522       Zr523   2.436       .  S
O522        H551   0.990       .  S
Zr523       O526   2.438       .  S
Zr523       O527   2.440       .  S
Zr523       O528   2.418       .  S
O525        H542   0.990       .  S
O525        H557   0.990       .  S
O526        H543   0.990       .  S
O527        H547   0.990       .  S
O527        H556   0.990       .  S
O528        C529   1.280       .  A
C529        C757   1.477       .  S
C529        O932   1.286       .  A
O530        H549   0.990       .  S
O530        H553   0.990       .  S
O531        H545   0.990       .  S
O531        H552   0.990       .  S
O532        C536   1.284       .  A
O533        C536   1.282       .  A
O534        H544   0.990       .  S
O535        H548   0.990       .  S
C536        C782   1.465       .  S
C559        N564   1.364       .  A
C559        C798   1.493       .  S
N560        C967   1.355       .  A
N560        C561   1.356       .  A
C561        N562   1.361       .  A
C561        C753   1.474       .  S
N562        C971   1.360       .  A
C563        N564   1.363       .  A
C565        N566   1.360       .  A
C565        N570   1.357       .  A
C565        C750   1.472       .  S
N566        C567   1.358       .  A
C567        N568   1.363       .  A
C567        C766   1.481       .  S
N568        C569   1.359       .  A
C569        N570   1.359       .  A
C569        C745   1.482       .  S
Zr571       O572   2.440       .  S
Zr571       O573   2.425       .  S
Zr571       O574   2.411   1_554  S
Zr571       O577   2.420       .  S
Zr571       O579   2.378   1_554  S
Zr571       O580   2.377       .  S
Zr571       O581   2.398   1_554  S
Zr571       O582   2.398       .  S
O572        H628   0.990       .  S
O572        H636   0.990   1_554  S
O573        C593   1.282       .  A
O574        C595   1.282       .  A
O575       Zr585   2.458       .  S
O575        C594   1.290       .  A
O576       Zr584   2.437       .  S
O576        C595   1.284       .  A
O577        C594   1.282       .  A
O578       Zr586   2.441       .  S
O578        C593   1.286       .  A
O579       Zr584   2.395       .  S
O579       Zr586   2.372   1_556  S
O580       Zr585   2.392       .  S
O580       Zr586   2.371       .  S
O580        H615   0.966       .  S
O581       Zr584   2.399       .  S
O581       Zr601   2.384       .  S
O581        H618   0.966       .  S
O582       Zr585   2.395       .  S
O582       Zr601   2.398   1_554  S
Zr583       O608   2.442   1_556  S
Zr583       O602   2.439       .  S
Zr583       O610   2.415   1_556  S
Zr583       O598   2.413       .  S
Zr583       O589   2.402   1_556  S
Zr583       O590   2.406       .  S
Zr583       O591   2.372       .  S
Zr583       O592   2.381   1_556  S
Zr584       O603   2.437       .  S
Zr584       O596   2.436       .  S
Zr584       O597   2.447       .  S
Zr584       O590   2.394       .  S
Zr584       O591   2.384       .  S
Zr585       O587   2.435       .  S
Zr585       O609   2.438       .  S
Zr585       O611   2.458       .  S
Zr585       O589   2.392       .  S
Zr585       O592   2.396       .  S
Zr586       O612   2.435       .  S
Zr586       O613   2.435       .  S
Zr586       O588   2.437       .  S
Zr586       O589   2.401       .  S
Zr586       O590   2.402   1_554  S
O587        H624   0.990       .  S
O588        H619   0.990       .  S
O588        H633   0.990   1_554  S
O590        H616   0.966       .  S
O591       Zr601   2.370       .  S
O592       Zr601   2.383   1_554  S
O592        H617   0.966       .  S
C593        C746   1.480       .  S
C594        C773   1.480       .  S
C595        C737   1.468       .  S
O596        H632   0.990       .  S
O597        C599   1.288       .  A
O598        C599   1.280       .  A
C599        C754   1.470       .  S
O600       Zr601   2.434       .  S
O600        H629   0.990       .  S
Zr601       O604   2.439       .  S
Zr601       O605   2.438       .  S
Zr601       O606   2.419       .  S
O602        C607   1.286       .  A
O603        H620   0.990       .  S
O603        H635   0.990       .  S
O604        H621   0.990       .  S
O605        H625   0.990       .  S
O605        H634   0.990   1_556  S
O606        C607   1.280       .  A
C607        C734   1.475       .  S
O608        H627   0.990       .  S
O608        H631   0.990   1_554  S
O609        H623   0.990       .  S
O609        H630   0.990       .  S
O610        C614   1.283       .  A
O611        C614   1.289       .  A
O612        H622   0.990       .  S
O613        H626   0.990       .  S
C614        C741   1.485       .  S
C637        N638   1.360       .  A
C637        N642   1.360       .  A
C637        C729   1.476       .  S
N638        C639   1.353       .  A
C639        N640   1.359       .  A
C639        C733   1.477       .  S
N640        C641   1.357       .  A
C641        N642   1.362       .  A
C641        C762   1.475       .  S
C643        N644   1.351       .  A
C643        C738   1.461       .  S
N644        C645   1.351       .  A
N646       C1053   1.363       .  A
N646        C647   1.364       .  A
C647        N648   1.360       .  A
C647        C790   1.485       .  S
N648       C1051   1.361       .  A
C649        N650   1.360       .  A
C649        N654   1.365       .  A
C649        C742   1.477       .  S
N650        C651   1.358       .  A
C651        N652   1.348       .  A
C651        C722   1.475       .  S
N652        C653   1.357       .  A
C653        N654   1.362       .  A
C653       C1202   1.474       .  S
Zr655       O656   2.437       .  S
Zr655       O657   2.396       .  S
Zr655       O658   2.408   1_554  S
Zr655       O661   2.413       .  S
Zr655       O663   2.375   1_554  S
Zr655       O664   2.379       .  S
Zr655       O665   2.392   1_554  S
Zr655       O666   2.395       .  S
O656        H712   0.990       .  S
O656        H720   0.990   1_554  S
O657        C677   1.276       .  A
O658        C679   1.280       .  A
O659       Zr669   2.458       .  S
O659        C678   1.290       .  A
O660       Zr668   2.445       .  S
O660        C679   1.287       .  A
O661        C678   1.281       .  A
O662       Zr670   2.434       .  S
O663       Zr668   2.384       .  S
O663      Zr1078   2.367   1_556  S
O664       Zr669   2.391       .  S
O664      Zr1078   2.361       .  S
O664        H699   0.965       .  S
O665       Zr668   2.394       .  S
O665       Zr685   2.385   1_455  S
O665        H702   0.966       .  S
O666       Zr669   2.397       .  S
O666       Zr685   2.398   1_454  S
Zr667       O692   2.441       .  S
Zr667       O686   2.450       .  S
Zr667       O694   2.442   1_556  S
Zr667       O682   2.446       .  S
Zr667       O673   2.406   1_656  S
Zr667       O674   2.412   1_655  S
Zr668       O687   2.436   1_455  S
Zr668      O1088   2.434       .  S
Zr668      O1089   2.437       .  S
Zr668      O1082   2.400       .  S
Zr668       O675   2.386   1_455  S
Zr669       O671   2.436   1_455  S
Zr669      O1101   2.437       .  S
Zr669      O1103   2.454   1_455  S
Zr669      O1081   2.391       .  S
Zr669       O676   2.398   1_455  S
Zr670       O696   2.437       .  S
Zr670       O697   2.436       .  S
Zr670       O672   2.436       .  S
Zr670       O673   2.394       .  S
Zr670       O674   2.405   1_554  S
O671        H708   0.990       .  S
O672        H703   0.990       .  S
O672        H717   0.990       .  S
O674        H700   0.966       .  S
O675      Zr1075   2.378       .  S
O675       Zr685   2.378       .  S
O676      Zr1075   2.387   1_554  S
O676       Zr685   2.387   1_554  S
O676        H701   0.966       .  S
C677        C721   1.471       .  S
C677       O1070   1.288       .  A
C678        C777   1.476       .  S
C679        C730   1.466       .  S
O680        H716   0.990       .  S
O681        C683   1.284   1_455  A
O682        C683   1.287       .  A
C683        C810   1.482       .  S
O684       Zr685   2.434       .  S
O684        H713   0.989   1_655  S
Zr685       O688   2.437       .  S
Zr685       O689   2.439       .  S
Zr685       O690   2.409       .  S
O687        H704   0.990   1_655  S
O687        H719   0.990       .  S
O688        H705   0.991       .  S
O689        H709   0.990       .  S
O689        H718   0.990   1_556  S
O690        C691   1.278       .  A
C691        C726   1.476       .  S
C691       O1094   1.289       .  A
O692        H711   0.991       .  S
O692        H715   0.990   1_556  S
O693        H707   0.990       .  S
O693        H714   0.990       .  S
O694        C698   1.285       .  A
O695        C698   1.282       .  A
O696        H706   0.990       .  S
O697        H710   0.990       .  S
C698        C749   1.476       .  S
C721        C722   1.336       .  D
C721        H723   1.087       .  S
C722        H724   1.087       .  S
C725       C1053   1.475       .  S
C725        C726   1.339       .  D
C725       H1135   1.087       .  S
C726        H728   1.087       .  S
C729        C730   1.341       .  D
C729        H731   1.087       .  S
C730        H732   1.087       .  S
C733        C734   1.342       .  D
C733        H735   1.086       .  S
C734        H736   1.087       .  S
C737        C738   1.339       .  D
C737        H739   1.087       .  S
C738        H740   1.088       .  S
C741        C742   1.348       .  D
C741        H743   1.086       .  S
C742        H744   1.087       .  S
C745        C746   1.346       .  D
C745        H747   1.086       .  S
C746        H748   1.087       .  S
C749        C750   1.342       .  D
C749        H751   1.087       .  S
C750        H752   1.087       .  S
C753        C754   1.339       .  D
C753        H755   1.087       .  S
C754        H756   1.087       .  S
C757        C758   1.343       .  D
C757       H1167   1.087       .  S
C758        C971   1.478       .  S
C758        H760   1.087       .  S
C761        C762   1.342       .  D
C761        H763   1.087       .  S
C762        H764   1.086       .  S
C765        C766   1.341       .  D
C765        H767   1.088       .  S
C766        H768   1.086       .  S
C769        C770   1.344       .  D
C769        H771   1.086       .  S
C770       H1180   1.087       .  S
C773        C774   1.341       .  D
C773        H775   1.087       .  S
C774        H776   1.087       .  S
C777        C778   1.339       .  D
C777        H779   1.087       .  S
C778        H780   1.087       .  S
C781        C782   1.339       .  D
C781        H783   1.087       .  S
C782        H784   1.087       .  S
C785        C786   1.339       .  D
C785        H787   1.087       .  S
C786        H788   1.087       .  S
C789        C790   1.345       .  D
C789        H791   1.087       .  S
C790        H792   1.087       .  S
C793        C794   1.349       .  D
C793        H795   1.087       .  S
H796       C1202   1.086       .  S
C797        C798   1.350       .  D
C797        H799   1.087       .  S
C798        H800   1.086       .  S
C801        C802   1.348       .  D
C801        H803   1.087       .  S
C802        H804   1.087       .  S
C805        C806   1.344       .  D
C805        H807   1.087       .  S
C806        H808   1.087       .  S
C809        C810   1.344       .  D
C809        H811   1.087       .  S
C810        H812   1.087       .  S
C813        C814   1.346       .  D
C813        H815   1.086       .  S
C814        H816   1.087       .  S
C817        N818   1.361       .  A
C817        N822   1.358       .  A
C817       C1221   1.478       .  S
N818        C819   1.364       .  A
C819        N820   1.358       .  A
C819       C1217   1.478       .  S
N820        C821   1.359       .  A
C821        N822   1.352       .  A
C821       C1213   1.475       .  S
Zr823       O824   2.438       .  S
Zr823       O825   2.409       .  S
Zr823       O826   2.420       .  S
Zr823       O829   2.413       .  S
Zr823       O831   2.375       .  S
Zr823       O832   2.381       .  S
Zr823       O833   2.395       .  S
Zr823       O834   2.394       .  S
O824        H880   0.990       .  S
O824        H888   0.990       .  S
O825        C845   1.278       .  A
O826        C847   1.282       .  A
O827       Zr837   2.444       .  S
O827        C846   1.287       .  A
O828       Zr836   2.431       .  S
O828        C847   1.285       .  A
O829        C846   1.282       .  A
O830       Zr838   2.480       .  S
O830        C845   1.292       .  A
O831       Zr836   2.392       .  S
O831       Zr838   2.363       .  S
O832       Zr837   2.405       .  S
O832       Zr838   2.369       .  S
O832        H867   0.966       .  S
O833       Zr836   2.408       .  S
O833       Zr853   2.387       .  S
O833        H870   0.966       .  S
O834       Zr837   2.402       .  S
O834       Zr853   2.386       .  S
Zr835       O860   2.438       .  S
Zr835       O854   2.444       .  S
Zr835       O862   2.420       .  S
Zr835       O850   2.410       .  S
Zr835       O841   2.408       .  S
Zr835       O842   2.412       .  S
Zr835       O843   2.370       .  S
Zr835       O844   2.376       .  S
Zr836       O855   2.438       .  S
Zr836       O848   2.435       .  S
Zr836       O849   2.454       .  S
Zr836       O842   2.393       .  S
Zr836       O843   2.379       .  S
Zr837       O839   2.436       .  S
Zr837       O861   2.435       .  S
Zr837       O863   2.480       .  S
Zr837       O841   2.390       .  S
Zr837       O844   2.389       .  S
Zr838       O864   2.436       .  S
Zr838       O865   2.437       .  S
Zr838       O840   2.436       .  S
Zr838       O841   2.419       .  S
Zr838       O842   2.417       .  S
O839        H876   0.990       .  S
O840        H871   0.990       .  S
O840        H885   0.990       .  S
O842        H868   0.966       .  S
O843       Zr853   2.373       .  S
O844       Zr853   2.385       .  S
O844        H869   0.966       .  S
C845       C1193   1.492       .  S
C846       C1201   1.468       .  S
C847       C1205   1.464       .  S
O848        H884   0.990       .  S
O849        C851   1.289       .  A
O850        C851   1.280       .  A
C851       C1197   1.475       .  S
O852       Zr853   2.436       .  S
O852        H881   0.990       .  S
Zr853       O856   2.437       .  S
Zr853       O857   2.440       .  S
Zr853       O858   2.408       .  S
O854        C859   1.287       .  A
O855        H872   0.990       .  S
O855        H887   0.990       .  S
O856        H873   0.990       .  S
O857        H877   0.990       .  S
O857        H886   0.989       .  S
O858        C859   1.279       .  A
C859       C1214   1.472       .  S
O860        H879   0.990       .  S
O860        H883   0.989       .  S
O861        H875   0.990       .  S
O861        H882   0.990       .  S
O862        C866   1.281       .  A
O863        C866   1.293       .  A
O864        H874   0.990       .  S
O865        H878   0.990       .  S
C866       C1209   1.490       .  S
C889        N890   1.357       .  A
C889        N894   1.371       .  A
C889       C1189   1.486       .  S
N890        C891   1.354       .  A
C891        N892   1.358       .  A
C891       C1186   1.474       .  S
N892        C893   1.356       .  A
C893        N894   1.370       .  A
C893       C1194   1.490       .  S
C895        N896   1.359       .  A
C895        N900   1.369       .  A
C895       C1210   1.492       .  S
N896        C897   1.357       .  A
C897        N898   1.360       .  A
N898        C899   1.360       .  A
C899        N900   1.369       .  A
C899       C1177   1.494       .  S
Zr901       O902   2.436       .  S
Zr901       O903   2.426       .  S
Zr901       O904   2.431       .  S
Zr901       O907   2.445       .  S
Zr901       O909   2.380       .  S
Zr901       O910   2.379       .  S
Zr901       O911   2.404   1_655  S
Zr901       O912   2.398   1_655  S
O902        H958   0.990       .  S
O902        H966   0.990       .  S
O903        C923   1.282       .  A
O904        C925   1.284       .  A
O905       Zr915   2.431   1_655  S
O905        C924   1.285       .  A
O906       Zr914   2.440   1_655  S
O906        C925   1.286       .  A
O907        C924   1.288       .  A
O908       Zr916   2.456       .  S
O909       Zr914   2.400   1_655  S
O910       Zr915   2.398   1_655  S
O910        H945   0.966       .  S
O911       Zr914   2.408       .  S
O911       Zr931   2.388       .  S
O911        H948   0.966       .  S
O912       Zr915   2.404       .  S
O912       Zr931   2.396       .  S
Zr913       O938   2.440       .  S
Zr913       O932   2.443       .  S
Zr913       O940   2.424       .  S
Zr913       O928   2.425       .  S
Zr913       O919   2.409       .  S
Zr913       O920   2.406       .  S
Zr914       O933   2.438       .  S
Zr914       O921   2.383       .  S
Zr915       O917   2.435       .  S
Zr915       O922   2.388       .  S
Zr916       O942   2.438       .  S
Zr916       O943   2.435       .  S
Zr916       O918   2.437       .  S
Zr916       O919   2.410   1_655  S
Zr916       O920   2.388   1_655  S
O917        H954   0.990       .  S
O918        H949   0.990       .  S
O918        H963   0.990       .  S
O920        H946   0.965       .  S
O921       Zr931   2.371       .  S
O922       Zr931   2.379       .  S
O922        H947   0.966       .  S
C923       C1178   1.493       .  S
C924       C1173   1.478       .  S
C925       C1222   1.470       .  S
O926        H962   0.990       .  S
O927        C929   1.285       .  A
O928        C929   1.285       .  A
C929       C1169   1.475       .  S
O930       Zr931   2.434       .  S
O930        H959   0.990       .  S
Zr931       O934   2.435       .  S
Zr931       O935   2.437       .  S
Zr931       O936   2.416       .  S
O933        H950   0.990       .  S
O933        H965   0.990       .  S
O934        H951   0.990       .  S
O935        H955   0.990       .  S
O935        H964   0.990       .  S
O936        C937   1.280       .  A
C937       C1165   1.472       .  S
O938        H957   0.990       .  S
O938        H961   0.990       .  S
O939        H953   0.990       .  S
O939        H960   0.990   1_455  S
O940        C944   1.281       .  A
O941        C944   1.291       .  A
O942        H952   0.990       .  S
O943        H956   0.990   1_655  S
C944       C1190   1.485       .  S
C967        N972   1.359       .  A
C967       C1206   1.467       .  S
N968        C969   1.362   1_545  A
C969        N970   1.355       .  A
C969       C1161   1.475       .  S
C971        N972   1.355       .  A
C973        N974   1.367       .  A
C973        N978   1.363       .  A
C973       C1158   1.486       .  S
N974        C975   1.364       .  A
C975        N976   1.356       .  A
C975       C1174   1.481       .  S
N976        C977   1.352       .  A
C977        N978   1.361       .  A
C977       C1153   1.477       .  S
Zr979       O980   2.437       .  S
Zr979       O981   2.410       .  S
Zr979       O982   2.429   1_554  S
Zr979       O985   2.427       .  S
Zr979       O987   2.377   1_554  S
Zr979       O988   2.381       .  S
Zr979       O989   2.395   1_554  S
Zr979       O990   2.398       .  S
O980       H1036   0.990       .  S
O980       H1044   0.990   1_554  S
O981       C1001   1.279       .  A
O982       C1003   1.285       .  A
O983       Zr993   2.455       .  S
O983       C1002   1.289       .  A
O984       Zr992   2.430       .  S
O984       C1003   1.283       .  A
O985       C1002   1.284       .  A
O986       Zr994   2.452       .  S
O986       C1001   1.288       .  A
O987       Zr992   2.390       .  S
O987       Zr994   2.370   1_556  S
O988       Zr993   2.394       .  S
O988       Zr994   2.362       .  S
O988       H1023   0.966       .  S
O989       Zr992   2.400       .  S
O989      Zr1009   2.387       .  S
O989       H1026   0.966       .  S
O990       Zr993   2.398       .  S
O990      Zr1009   2.394   1_554  S
Zr991      O1016   2.441       .  S
Zr991      O1010   2.447       .  S
Zr991      O1018   2.433   1_556  S
Zr991      O1006   2.444       .  S
Zr991       O997   2.410   1_556  S
Zr991       O998   2.409       .  S
Zr991       O999   2.378       .  S
Zr991      O1000   2.385   1_556  S
Zr992      O1011   2.436       .  S
Zr992      O1004   2.435       .  S
Zr992      O1005   2.435       .  S
Zr992       O998   2.396       .  S
Zr992       O999   2.385       .  S
Zr993       O995   2.435       .  S
Zr993      O1017   2.438       .  S
Zr993      O1019   2.453       .  S
Zr993       O997   2.394       .  S
Zr993      O1000   2.393       .  S
Zr994      O1020   2.436       .  S
Zr994      O1021   2.435       .  S
Zr994       O996   2.436       .  S
Zr994       O997   2.406       .  S
Zr994       O998   2.398   1_554  S
O995       H1032   0.990       .  S
O996       H1027   0.990       .  S
O996       H1041   0.990   1_554  S
O998       H1024   0.965       .  S
O999      Zr1009   2.379       .  S
O1000     Zr1009   2.376   1_554  S
O1000      H1025   0.966       .  S
C1001      C1154   1.478       .  S
C1002      C1181   1.478       .  S
C1003      C1145   1.470       .  S
O1004      H1040   0.990       .  S
O1005      C1007   1.284       .  A
O1006      C1007   1.288       .  A
C1007      C1162   1.480       .  S
O1008     Zr1009   2.438       .  S
O1008      H1037   0.991       .  S
Zr1009     O1012   2.438       .  S
Zr1009     O1013   2.440   1_556  S
Zr1009     O1014   2.410       .  S
O1010      C1015   1.287       .  A
O1011      H1028   0.990       .  S
O1011      H1043   0.990       .  S
O1012      H1029   0.990       .  S
O1013      H1033   0.990       .  S
O1013      H1042   0.990       .  S
O1014      C1015   1.280       .  A
C1015      C1142   1.472       .  S
O1016      H1035   0.990   1_556  S
O1016      H1039   0.990       .  S
O1017      H1031   0.990       .  S
O1017      H1038   0.990       .  S
O1018      C1022   1.285       .  A
O1019      C1022   1.289       .  A
O1020      H1030   0.990       .  S
O1021      H1034   0.990       .  S
C1022      C1149   1.485       .  S
C1045      N1046   1.365       .  A
C1045      N1050   1.359       .  A
C1045      C1137   1.476       .  S
N1046      C1047   1.358       .  A
C1047      N1048   1.356       .  A
C1047      C1141   1.480       .  S
N1048      C1049   1.351       .  A
C1049      N1050   1.358       .  A
C1049      C1170   1.465       .  S
C1051      N1052   1.353       .  A
C1051      C1146   1.469       .  S
N1052      C1053   1.353       .  A
N1054      C1055   1.363       .  A
C1055      N1056   1.358   1_565  A
C1055      C1198   1.480       .  S
C1057      N1058   1.363       .  A
C1057      N1062   1.364       .  A
C1057      C1150   1.483       .  S
N1058      C1059   1.362       .  A
C1059      N1060   1.351   1_565  A
C1059      C1130   1.477   1_565  S
N1060      C1061   1.356   1_545  A
C1061      N1062   1.361       .  A
Zr1063     O1064   2.436       .  S
Zr1063     O1065   2.405       .  S
Zr1063     O1066   2.410   1_554  S
Zr1063     O1069   2.412       .  S
Zr1063     O1071   2.372   1_554  S
Zr1063     O1072   2.379       .  S
Zr1063     O1073   2.394   1_554  S
Zr1063     O1074   2.392       .  S
O1064      H1120   0.990       .  S
O1064      H1128   0.990   1_554  S
O1065      C1085   1.279       .  A
O1066      C1087   1.280       .  A
O1067     Zr1077   2.452       .  S
O1067      C1086   1.289       .  A
O1068     Zr1076   2.448       .  S
O1068      C1087   1.288       .  A
O1069      C1086   1.281       .  A
O1070     Zr1078   2.453       .  S
O1071     Zr1076   2.384       .  S
O1072     Zr1077   2.395       .  S
O1072      H1107   0.966       .  S
O1073     Zr1076   2.400       .  S
O1073     Zr1093   2.395   1_455  S
O1073      H1110   0.966       .  S
O1074     Zr1077   2.396       .  S
O1074     Zr1093   2.396   1_454  S
Zr1075     O1100   2.444   1_556  S
Zr1075     O1094   2.451       .  S
Zr1075     O1102   2.437   1_556  S
Zr1075     O1090   2.441       .  S
Zr1075     O1081   2.406   1_656  S
Zr1075     O1082   2.412   1_655  S
Zr1076     O1095   2.435   1_455  S
Zr1076     O1083   2.388   1_455  S
Zr1077     O1079   2.435   1_455  S
Zr1077     O1084   2.390   1_455  S
Zr1078     O1104   2.436       .  S
Zr1078     O1105   2.436       .  S
Zr1078     O1080   2.436       .  S
Zr1078     O1081   2.403       .  S
Zr1078     O1082   2.401   1_554  S
O1079      H1116   0.990       .  S
O1080      H1111   0.990       .  S
O1080      H1125   0.990       .  S
O1082      H1108   0.965       .  S
O1083     Zr1093   2.372       .  S
O1084     Zr1093   2.385   1_554  S
O1084      H1109   0.966       .  S
C1085      C1129   1.478       .  S
C1086      C1185   1.470       .  S
C1087      C1138   1.470       .  S
O1088      H1124   0.990       .  S
O1089      C1091   1.285   1_455  A
O1090      C1091   1.287       .  A
C1091      C1218   1.480       .  S
O1092     Zr1093   2.437       .  S
O1092      H1121   0.990       .  S
Zr1093     O1096   2.437       .  S
Zr1093     O1097   2.441       .  S
Zr1093     O1098   2.417       .  S
O1095      H1112   0.990       .  S
O1095      H1127   0.990       .  S
O1096      H1113   0.990       .  S
O1097      H1117   0.990       .  S
O1097      H1126   0.989   1_556  S
O1098      C1099   1.280       .  A
C1099      C1134   1.477       .  S
O1100      H1119   0.990       .  S
O1100      H1123   0.990   1_554  S
O1101      H1115   0.990       .  S
O1101      H1122   0.990       .  S
O1102      C1106   1.286       .  A
O1103      C1106   1.288       .  A
O1104      H1114   0.990       .  S
O1105      H1118   0.990       .  S
C1106      C1157   1.489       .  S
C1129      C1130   1.338   1_565  D
C1129      H1131   1.087       .  S
C1130      H1132   1.087       .  S
C1133      C1134   1.341   1_545  D
C1134      H1136   1.087       .  S
C1137      C1138   1.339       .  D
C1137      H1139   1.086       .  S
C1138      H1140   1.087       .  S
C1141      C1142   1.344       .  D
C1141      H1143   1.086       .  S
C1142      H1144   1.088       .  S
C1145      C1146   1.339       .  D
C1145      H1147   1.087       .  S
C1146      H1148   1.088       .  S
C1149      C1150   1.349       .  D
C1149      H1151   1.087       .  S
C1150      H1152   1.087       .  S
C1153      C1154   1.340       .  D
C1153      H1155   1.087       .  S
C1154      H1156   1.087       .  S
C1157      C1158   1.348       .  D
C1157      H1159   1.087       .  S
C1158      H1160   1.087       .  S
C1161      C1162   1.342       .  D
C1161      H1163   1.087       .  S
C1162      H1164   1.087       .  S
C1165      C1166   1.343   1_565  D
C1166      H1168   1.086       .  S
C1169      C1170   1.342       .  D
C1169      H1171   1.087       .  S
C1170      H1172   1.087       .  S
C1173      C1174   1.350       .  D
C1173      H1175   1.087       .  S
C1174      H1176   1.086       .  S
C1177      C1178   1.346       .  D
C1177      H1179   1.087   1_565  S
C1181      C1182   1.345       .  D
C1181      H1183   1.087       .  S
C1182      H1184   1.086       .  S
C1185      C1186   1.339       .  D
C1185      H1187   1.088       .  S
C1186      H1188   1.087       .  S
C1189      C1190   1.341       .  D
C1189      H1191   1.087       .  S
C1190      H1192   1.087       .  S
C1193      C1194   1.342       .  D
C1193      H1195   1.087       .  S
C1194      H1196   1.086       .  S
C1197      C1198   1.341       .  D
C1197      H1199   1.087       .  S
C1198      H1200   1.087       .  S
C1201      C1202   1.344       .  D
C1201      H1203   1.088       .  S
C1205      C1206   1.340       .  D
C1205      H1207   1.088       .  S
C1206      H1208   1.087       .  S
C1209      C1210   1.344       .  D
C1209      H1211   1.087       .  S
C1210      H1212   1.087       .  S
C1213      C1214   1.339       .  D
C1213      H1215   1.087       .  S
C1214      H1216   1.087       .  S
C1217      C1218   1.344       .  D
C1217      H1219   1.087       .  S
C1218      H1220   1.087       .  S
C1221      C1222   1.345       .  D
C1221      H1223   1.087       .  S
C1222      H1224   1.087       .  S
