geometry optimzed in LAMMPS
_audit_creation_date              2020-11-30 
_audit_creation_method            'lammps2cif' 
_symmetry_space_group_name_H-M    'P1' 
_symmetry_Int_Tables_number       1 
_symmetry_cell_setting            triclinic 
loop_ 
_symmetry_equiv_pos_as_xyz 
  x,y,z 
_cell_length_a                    25.15675221 
_cell_length_b                    25.40763598095924 
_cell_length_c                    30.1084564902169 
_cell_angle_alpha                 78.30200953036204 
_cell_angle_beta                  78.44869038401872 
_cell_angle_gamma                 91.51548754562371 
loop_ 
_atom_site_label 
_atom_site_type_symbol 
_atom_site_fract_x 
_atom_site_fract_y 
_atom_site_fract_z 
_atom_site_charge 
N1          N  0.74912610  0.66547588  0.00348167    -0.03200
C2          C  0.77913052  0.71317540  0.99174877    -0.00600
C3          C  0.77612079  0.73779516  0.44877677    -0.23500
C4          C  0.74834786  0.70421510  0.42977159    -0.23700
C5          C  0.73328175  0.65778468  0.46342305    -0.00700
H6          H  0.79813552  0.77571385  0.43050009     0.13100
H7          H  0.74237797  0.71157809  0.39448016     0.13100
N8          N  0.28860001  0.63598540  0.04370193    -0.03200
C9          C  0.24352418  0.66417981  0.04271188    -0.00600
C10         C  0.21005648  0.65494083  0.08648241    -0.23500
C11         C  0.23552092  0.62122436  0.11564276    -0.23700
C12         C  0.28311673  0.61031410  0.08858157    -0.00700
H13         H  0.17446919  0.67607625  0.09710188     0.13100
H14         H  0.22293132  0.60934606  0.15301071     0.13100
N15         N  0.72098126  0.14918861  0.05612089    -0.03200
C16         C  0.74132187  0.10001920  0.06001192    -0.00600
C17         C  0.71343144  0.06556453  0.10023087    -0.23500
C18         C  0.67678469  0.09523926  0.12293158    -0.23700
C19         C  0.68278049  0.14633039  0.09537574    -0.00700
H20         H  0.72322122  0.02517430  0.11426927     0.13100
H21         H  0.65279308  0.08260468  0.15784629     0.13100
N22         N  0.05316843  0.85939587  0.48376865    -0.36400
N23         N  0.13150684  0.94759973  0.97816576    -0.56900
N24         N  0.04836148  0.02877258  0.97441484    -0.36300
N25         N  0.97134253  0.93806246  0.48435741    -0.56900
C26         C  0.09514875  0.83150456  0.49522092     0.27200
C27         C  0.00718794  0.82845901  0.50551020     0.27200
C28         C  0.08599649  0.05301544  0.99149505     0.27200
C29         C  0.00080992  0.05153239  0.98609146     0.27200
C30         C  0.16690732  0.90983798  0.96950254     0.35900
C31         C  0.16128916  0.99415529  0.97294802     0.35900
C32         C  0.94195248  0.89369468  0.48221111     0.35900
C33         C  0.94133133  0.98039000  0.47391425     0.35900
C34         C  0.07560535  0.78259944  0.52491929    -0.21600
C35         C  0.01993682  0.78081422  0.53157067    -0.21600
C36         C  0.06252058  0.09334122  0.01224024    -0.21600
C37         C  0.00935466  0.09333814  0.00771634    -0.21600
C38         C  0.21963980  0.93307285  0.95709597    -0.22700
C39         C  0.21609260  0.98627683  0.96041507    -0.22700
C40         C  0.89392855  0.90803644  0.46868317    -0.22700
C41         C  0.89302747  0.96272709  0.46432629    -0.22700
C42         C  0.15166662  0.85388916  0.98011183    -0.18000
C43         C  0.95465427  0.84041178  0.49888650    -0.18000
C44         C  0.95229567  0.03192387  0.48224693    -0.18000
C45         C  0.14050058  0.03899441  0.98987214    -0.18000
H46         H  0.09895798  0.75157060  0.54048716     0.14900
H47         H  0.99203587  0.74782401  0.55257092     0.14900
H48         H  0.08102494  0.11972615  0.02971978     0.14900
H49         H  0.97998381  0.11976510  0.02085349     0.14900
H50         H  0.25685087  0.91314907  0.94960898     0.13200
H51         H  0.24992234  0.01534643  0.95623241     0.13200
H52         H  0.86156802  0.88168034  0.46460896     0.13200
H53         H  0.85927268  0.98598367  0.45710460     0.13200
H54         H  0.05614671  0.89473438  0.45840155     0.26400
H55         H  0.05487640  0.99873796  0.95525744     0.26400
N56         N  0.25355674  0.16556390  0.12848131    -0.03200
C57         C  0.21347351  0.12846970  0.12911705    -0.00600
C58         C  0.18030591  0.11487186  0.17290111    -0.23500
C59         C  0.20099875  0.14410754  0.20007357    -0.23700
C60         C  0.24600499  0.17516115  0.17201572    -0.00700
H61         H  0.14499509  0.08646512  0.18405327     0.13100
H62         H  0.18581410  0.14129434  0.23678495     0.13100
C63         C  0.63648701  0.28016736  0.40931271     0.42700
N64         N  0.57869435  0.30593660  0.36685802     0.01600
C65         C  0.58809365  0.54685135  0.20664678    -0.06300
H66         H  0.55537120  0.56112809  0.37994312     0.07100
C67         C  0.38041656  0.46156373  0.41136686    -0.06600
Co68       Co  0.61660231  0.40917260  0.29791041     0.74200
N69         N  0.57490712  0.49903107  0.34193314    -0.25800
Co70       Co  0.51574397  0.50029899  0.30293678     0.74100
C71         C  0.39799200  0.51342141  0.41985959     0.42800
N72         N  0.41895774  0.33415919  0.39310866     0.01200
N73         N  0.45444683  0.49445844  0.36226698     0.01300
N74         N  0.65468115  0.48896536  0.20360914    -0.46700
H75         H  0.69360327  0.35627872  0.37466397     0.07100
N76         N  0.61332236  0.46458619  0.34067636     0.01600
N77         N  0.45633054  0.49569052  0.26444137     0.01300
C78         C  0.41059424  0.50664201  0.21093363     0.43000
N79         N  0.45712117  0.29948595  0.39144390    -0.25300
C80         C  0.64323803  0.34914245  0.21536526    -0.06200
N81         N  0.58863663  0.26634057  0.39948216    -0.46400
N82         N  0.45251718  0.52802873  0.22491581    -0.46600
C83         C  0.61852473  0.30204284  0.20390059     0.42700
N84         N  0.61603987  0.47324587  0.24170720     0.01600
N85         N  0.45465788  0.30228999  0.29434011    -0.25300
N86         N  0.61722929  0.34544590  0.35416158    -0.25800
N87         N  0.41687882  0.33705208  0.29615226     0.01200
H88         H  0.46513235  0.23247774  0.26449524     0.07100
H89         H  0.35245196  0.43238994  0.24837214     0.07200
N90         N  0.57693878  0.50670786  0.24417295    -0.25800
N91         N  0.41744063  0.45364714  0.37501623    -0.25400
N92         N  0.57472477  0.31284105  0.26983179     0.01600
C93         C  0.62403639  0.50590662  0.39388946     0.43000
C94         C  0.44793754  0.26365915  0.43197953    -0.06700
N95         N  0.41872600  0.45525784  0.27752105    -0.25400
H96         H  0.34465351  0.43507003  0.42831182     0.07100
N97         N  0.64441143  0.46804690  0.37076826    -0.46700
H98         H  0.47182386  0.22972877  0.44047445     0.07100
C99         C  0.39385936  0.28595773  0.25331073     0.42800
C100        C  0.65549278  0.33306188  0.37933391    -0.06200
Co101      Co  0.51636382  0.30397768  0.33096512     0.73800
N102        N  0.38326900  0.32390032  0.43307763    -0.46400
C103        C  0.63970713  0.53520411  0.17943883     0.43100
N104        N  0.57659314  0.28189924  0.23934471    -0.46400
Co105      Co  0.41688690  0.39498786  0.33581491     0.73900
C106        C  0.38747078  0.45911344  0.24615894    -0.06700
C107        C  0.57921431  0.52761407  0.37369717    -0.06300
N108        N  0.61309433  0.35267445  0.25672932    -0.25800
N109        N  0.44439083  0.53112789  0.38806520    -0.46500
H110        H  0.56475538  0.58183992  0.20134113     0.07100
C111        C  0.44346087  0.26786951  0.26848732    -0.06700
Cl112      Cl  0.51655404  0.40210023  0.31698104    -0.49700
C113        C  0.39908595  0.28023094  0.45966027     0.42900
H114        H  0.67655872  0.37728604  0.19542271     0.07100
N115        N  0.37960595  0.32846344  0.27258249    -0.46400
C116        C  0.34022351  0.20496770  0.17562381    -0.26100
C117        C  0.28388071  0.20793567  0.18952465    -0.14100
C118        C  0.26431519  0.23805278  0.22330243     0.36500
C119        C  0.30132989  0.26292255  0.24323853    -0.25500
C120        C  0.35761790  0.25846165  0.23046115    -0.14700
C121        C  0.37710635  0.22983048  0.19542788     0.37600
N122        N  0.43387755  0.22581111  0.17846023    -0.89000
H123        H  0.35600744  0.18122979  0.15051348     0.18700
H124        H  0.28589249  0.28536650  0.26952722     0.18700
N125        N  0.20693016  0.24312998  0.23745627    -0.88000
H126        H  0.44986105  0.20230587  0.20460539     0.36100
H127        H  0.45342747  0.26445365  0.16894864     0.41200
H128        H  0.19346352  0.26410510  0.20861893     0.40800
H129        H  0.19931141  0.26632634  0.26275792     0.35700
C130        C  0.37127326  0.19494981  0.51854937    -0.26100
C131        C  0.36627587  0.25047915  0.50459560    -0.14100
C132        C  0.32216010  0.27716569  0.03080727     0.36500
C133        C  0.28845033  0.24876606  0.07221808    -0.25500
C134        C  0.29241722  0.19360531  0.08823264    -0.14700
C135        C  0.33219655  0.16632873  0.06316908     0.37600
N136        N  0.34075921  0.11063348  0.07931523    -0.89000
H137        H  0.40004519  0.17453918  0.49727325     0.18700
H138        H  0.25806680  0.26935243  0.09188611     0.18700
N139        N  0.31764018  0.33397191  0.01552322    -0.88000
H140        H  0.32968074  0.08908349  0.05606379     0.36100
H141        H  0.31625681  0.09479378  0.11188525     0.41200
H142        H  0.36220944  0.35270218  0.52130284     0.40800
H143        H  0.28681031  0.34777354  0.03834115     0.35700
C144        C  0.20490850  0.13795749  0.04618243    -0.26100
C145        C  0.20531184  0.10467255  0.08957207    -0.14100
C146        C  0.19284879  0.04868946  0.09645531     0.36500
C147        C  0.17534182  0.02807103  0.06171449    -0.25500
C148        C  0.17138061  0.06176523  0.01966142    -0.14700
C149        C  0.18853244  0.11673525  0.01099655     0.37600
N150        N  0.18646258  0.15141522  0.96758582    -0.89000
H151        H  0.21419231  0.18094846  0.04032656     0.18700
H152        H  0.16223368  0.98569790  0.06828222     0.18700
N153        N  0.19681459  0.01310002  0.13919161    -0.88000
H154        H  0.16115252  0.18211634  0.97426415     0.36100
H155        H  0.22561626  0.16918543  0.95260630     0.41200
H156        H  0.23776005  0.01398820  0.14131550     0.40800
H157        H  0.18532259  0.97329662  0.13892035     0.35700
C158        C  0.81347177  0.09894288  0.98893618    -0.26100
C159        C  0.79744655  0.09124950  0.03738833    -0.14100
C160        C  0.83533454  0.07360597  0.06499787     0.36500
C161        C  0.88538880  0.05780709  0.04473039    -0.25500
C162        C  0.90033489  0.06150423  0.99678811    -0.14700
C163        C  0.87154481  0.08748873  0.46783976     0.37600
N164        N  0.88866148  0.09722842  0.41821215    -0.89000
H165        H  0.79377318  0.11987728  0.46403409     0.18700
H166        H  0.91225499  0.04070872  0.06703963     0.18700
N167        N  0.82300409  0.07120944  0.11398548    -0.88000
H168        H  0.86200143  0.07447174  0.40578497     0.36100
H169        H  0.92757360  0.08447381  0.40833285     0.41200
H170        H  0.85242555  0.09580478  0.12165376     0.40800
H171        H  0.82604425  0.03158350  0.13101794     0.35700
C172        C  0.59796531  0.24502806  0.15160567    -0.26100
C173        C  0.63768799  0.27265743  0.16684149    -0.14100
C174        C  0.69300080  0.26335828  0.15261144     0.36500
C175        C  0.70660561  0.22338130  0.12748774    -0.25500
C176        C  0.66659956  0.19375913  0.11458567    -0.14700
C177        C  0.61188916  0.20559359  0.12550841     0.37600
N178        N  0.57076002  0.17688874  0.11095887    -0.89000
H179        H  0.55553259  0.25238549  0.16212125     0.18700
H180        H  0.74858525  0.21327933  0.12027115     0.18700
N181        N  0.73595757  0.29110140  0.16537978    -0.88000
H182        H  0.53272584  0.19177164  0.12063023     0.36100
H183        H  0.56789612  0.13679545  0.12881863     0.41200
H184        H  0.72882636  0.28504238  0.20151122     0.40800
H185        H  0.73628602  0.33215477  0.15097528     0.35700
C186        C  0.67955529  0.15739187  0.98882995    -0.26100
C187        C  0.71246424  0.18155990  0.51029986    -0.14100
C188        C  0.73248789  0.23539750  0.49088096     0.36500
C189        C  0.70777402  0.26667043  0.45746393    -0.25500
C190        C  0.66466550  0.24478591  0.44183940    -0.14700
C191        C  0.64806266  0.18940271  0.45857125     0.37600
N192        N  0.60661793  0.16433282  0.44151872    -0.89000
H193        H  0.66963859  0.11428329  0.99841365     0.18700
H194        H  0.72182921  0.30865479  0.44437621     0.18700
N195        N  0.77693311  0.25959991  0.50485773    -0.88000
H196        H  0.61903124  0.12193663  0.94263707     0.36100
H197        H  0.62234068  0.16424086  0.40664111     0.41200
H198        H  0.80755396  0.27266003  0.47517939     0.40800
H199        H  0.79393349  0.23074858  0.52683598     0.35700
C200        C  0.21058900  0.71899073  0.97699213    -0.26100
C201        C  0.24178806  0.71626371  0.01084113    -0.14100
C202        C  0.25463900  0.76373333  0.02513056     0.36500
C203        C  0.22959266  0.81112567  0.01077619    -0.25500
C204        C  0.19282221  0.81221738  0.98119840    -0.14700
C205        C  0.18670440  0.76687290  0.96151991     0.37600
N206        N  0.15234478  0.76063798  0.42937321    -0.89000
H207        H  0.20032370  0.68267326  0.96595676     0.18700
H208        H  0.23480397  0.84516701  0.02647518     0.18700
N209        N  0.28841665  0.76199128  0.05842598    -0.88000
H210        H  0.12058425  0.73077809  0.44311553     0.36100
H211        H  0.17634913  0.75023663  0.40025913     0.41200
H212        H  0.26574742  0.77273719  0.08794240     0.40800
H213        H  0.32101576  0.79080317  0.04421185     0.35700
C214        C  0.32787016  0.52898164  0.11770031    -0.26100
C215        C  0.32663602  0.58501075  0.10916321    -0.14100
C216        C  0.35887055  0.61556484  0.12921807     0.36500
C217        C  0.38890250  0.58935455  0.16046199    -0.25500
C218        C  0.38657534  0.53297244  0.17218256    -0.14700
C219        C  0.35792577  0.50263382  0.14897913     0.33700
N220        N  0.35868334  0.44514262  0.15751789    -0.89000
H221        H  0.30315523  0.50552720  0.10206020     0.18700
H222        H  0.41140905  0.61310026  0.17757276     0.18700
N223        N  0.35884106  0.67314221  0.11965384    -0.88000
H224        H  0.37434409  0.43429385  0.12601346     0.36100
H225        H  0.31857592  0.42863635  0.16918571     0.41200
H226        H  0.39895437  0.68896013  0.10610074     0.40800
H227        H  0.34541968  0.68515631  0.15100230     0.35700
C228        C  0.39614825  0.58369833  0.46757074    -0.26100
C229        C  0.36737814  0.54652541  0.45069938    -0.14100
C230        C  0.31000300  0.54189836  0.46358784     0.36500
C231        C  0.28641808  0.57501168  0.99082337    -0.25500
C232        C  0.31615298  0.61257481  0.00624050    -0.14700
C233        C  0.37322239  0.61925629  0.99016865     0.37600
N234        N  0.40589267  0.65865593  0.00289482    -0.89000
H235        H  0.44015334  0.58825190  0.45764186     0.18700
H236        H  0.24272568  0.56937805  0.00324675     0.18700
N237        N  0.27860039  0.50617161  0.44608746    -0.88000
H238        H  0.43071882  0.63798016  0.02355735     0.36100
H239        H  0.38170238  0.68176935  0.02278283     0.41200
H240        H  0.25220189  0.52885192  0.42843362     0.40800
H241        H  0.25510701  0.47881031  0.47434467     0.35700
C242        C  0.86084160  0.80051030  0.53871457    -0.26100
C243        C  0.91121430  0.79570523  0.51010901    -0.14100
C244        C  0.91786298  0.75088824  0.48903402     0.36500
C245        C  0.87322349  0.71460589  0.49380920    -0.25500
C246        C  0.82095098  0.72528258  0.51527007    -0.14700
C247        C  0.81517097  0.76681906  0.54034871     0.37600
N248        N  0.76303667  0.77887735  0.56416009    -0.89000
H249        H  0.85577494  0.83385256  0.55630068     0.18700
H250        H  0.87788361  0.68304521  0.47415138     0.18700
N251        N  0.96835324  0.74488305  0.45915780    -0.88000
H252        H  0.76580187  0.77077721  0.10109660     0.36100
H253        H  0.73440335  0.74940596  0.06357270     0.41200
H254        H  0.96112471  0.74536148  0.42607021     0.40800
H255        H  0.98168470  0.70717463  0.47163863     0.35700
C256        C  0.75068478  0.59311667  0.07115633    -0.26100
C257        C  0.72499212  0.63639227  0.04965319    -0.14100
C258        C  0.67246450  0.64718104  0.07152244     0.36500
C259        C  0.64627485  0.61340958  0.11323265    -0.25500
C260        C  0.67100397  0.56920935  0.13489914    -0.14700
C261        C  0.72429950  0.55924461  0.11361582     0.37600
N262        N  0.75136799  0.51480325  0.13465909    -0.89000
H263        H  0.79071661  0.58486469  0.05392874     0.18700
H264        H  0.60554282  0.62201068  0.12824610     0.18700
N265        N  0.64358077  0.69107091  0.05175794    -0.88000
H266        H  0.79123414  0.51515070  0.11596617     0.36100
H267        H  0.73118052  0.47940913  0.13208480     0.41200
H268        H  0.66682047  0.71443330  0.02118616     0.40800
H269        H  0.63599305  0.71650222  0.07528000     0.35700
C270        C  0.65391195  0.59352294  0.47383878    -0.26100
C271        C  0.70871381  0.60909663  0.45437760    -0.14100
C272        C  0.73800439  0.58245818  0.42144426     0.36500
C273        C  0.71005418  0.54515233  0.40443933    -0.25500
C274        C  0.65384415  0.53414917  0.42018441    -0.14700
C275        C  0.62631968  0.55560884  0.45753720     0.37600
N276        N  0.57079231  0.53929764  0.47987048    -0.89000
H277        H  0.63159714  0.61286453  0.49995974     0.18700
H278        H  0.73156374  0.52732186  0.37682797     0.18700
N279        N  0.79573758  0.59388515  0.40505693    -0.88000
H280        H  0.56690638  0.49727651  0.49005057     0.36100
H281        H  0.54545003  0.55141262  0.45678752     0.41200
H282        H  0.80248012  0.63283901  0.38460204     0.40800
H283        H  0.81142927  0.56816804  0.38333441     0.35700
N284        N  0.74991149  0.66152538  0.50278228    -0.03200
C285        C  0.77699169  0.71069517  0.49340728    -0.00600
C286        C  0.77968957  0.73766585  0.94615110    -0.23500
C287        C  0.74973745  0.70380459  0.92910009    -0.23700
C288        C  0.73159700  0.66004021  0.96491759    -0.00700
H289        H  0.80388489  0.77370237  0.92613801     0.13100
H290        H  0.74452756  0.70884317  0.89369703     0.13100
N291        N  0.28241808  0.63010643  0.54986033    -0.03200
C292        C  0.23848201  0.65985620  0.54873048    -0.00600
C293        C  0.20593052  0.65274759  0.59276762    -0.23500
C294        C  0.23079464  0.61850799  0.62208161    -0.23700
C295        C  0.27708684  0.60518823  0.59486306    -0.00700
H296        H  0.17158914  0.67551740  0.60328257     0.13100
H297        H  0.21894951  0.60801484  0.65955178     0.13100
N298        N  0.72522003  0.15204063  0.55258993    -0.03200
C299        C  0.74427536  0.10231406  0.55556781    -0.00600
C300        C  0.71494741  0.06688702  0.59456606    -0.23500
C301        C  0.67971109  0.09654833  0.61842749    -0.23700
C302        C  0.68789029  0.14850797  0.59247430    -0.00700
H303        H  0.72350822  0.02572795  0.60748643     0.13100
H304        H  0.65507707  0.08297761  0.65299913     0.13100
N305        N  0.05373154  0.86244137  0.98644440    -0.36400
N306        N  0.13257013  0.94286426  0.47761539    -0.56900
N307        N  0.05101514  0.02499299  0.47636573    -0.36300
N308        N  0.97045882  0.93969458  0.98488240    -0.56900
C309        C  0.09645466  0.83538713  0.99728512     0.27200
C310        C  0.00834373  0.83069015  0.00836810     0.27200
C311        C  0.08939015  0.04826784  0.49334850     0.27200
C312        C  0.00407626  0.04861554  0.48830868     0.27200
C313        C  0.16706199  0.90456344  0.46846895     0.35900
C314        C  0.16344628  0.98836469  0.47379938     0.35900
C315        C  0.94192216  0.89421050  0.98405126     0.35900
C316        C  0.93986125  0.98106222  0.97285764     0.35900
C317        C  0.07800612  0.78601724  0.02667197    -0.21600
C318        C  0.02222064  0.78321121  0.03387989    -0.21600
C319        C  0.06689150  0.08883217  0.51434777    -0.21600
C320        C  0.01366720  0.08998411  0.51003038    -0.21600
C321        C  0.22027862  0.92652403  0.45690581    -0.22700
C322        C  0.21798161  0.97937830  0.46135251    -0.22700
C323        C  0.89387737  0.90680500  0.96986315    -0.22700
C324        C  0.89206717  0.96156611  0.96366495    -0.22700
C325        C  0.15066620  0.84893540  0.47866888    -0.18000
C326        C  0.95549923  0.84158899  0.00191380    -0.18000
C327        C  0.94938831  0.03338287  0.98014581    -0.18000
C328        C  0.14369945  0.03321149  0.49130587    -0.18000
H329        H  0.10217573  0.75531102  0.04155246     0.14900
H330        H  0.99500344  0.74958620  0.05468640     0.14900
H331        H  0.08592463  0.11447743  0.53209802     0.14900
H332        H  0.98486577  0.11672646  0.52346331     0.14900
H333        H  0.25698420  0.90582997  0.44939816     0.13200
H334        H  0.25243378  0.00738894  0.45805693     0.13200
H335        H  0.86207311  0.87932970  0.96645070     0.13200
H336        H  0.85789040  0.98359603  0.95569501     0.13200
H337        H  0.05588471  0.89760794  0.96108886     0.26400
H338        H  0.05669271  0.99517637  0.45688995     0.26400
N339        N  0.26203571  0.16034155  0.62680947    -0.03200
C340        C  0.22180429  0.12377624  0.62698490    -0.00600
C341        C  0.18892334  0.10921990  0.67086750    -0.23500
C342        C  0.21007740  0.13739469  0.69857589    -0.23700
C343        C  0.25503116  0.16850766  0.67062898    -0.00700
H344        H  0.15371190  0.08068099  0.68170572     0.13100
H345        H  0.19525143  0.13407513  0.73540563     0.13100
C346        C  0.63450025  0.28109111  0.91576588     0.42700
N347        N  0.57848892  0.30410087  0.87127737     0.01600
C348        C  0.58926169  0.53938897  0.70494137    -0.06300
H349        H  0.55468008  0.56413571  0.87430050     0.07100
C350        C  0.38050026  0.46031322  0.90891965    -0.06600
Co351      Co  0.61801488  0.40627730  0.80096240     0.74200
N352        N  0.57452473  0.49817591  0.84124734    -0.25800
Co353      Co  0.51680785  0.49639468  0.80129106     0.74100
C354        C  0.39863280  0.51276828  0.91645289     0.42800
N355        N  0.41862915  0.33068087  0.89270507     0.01200
N356        N  0.45459624  0.49184319  0.85951560     0.01300
N357        N  0.65679919  0.48253081  0.70388429    -0.46700
H358        H  0.69047540  0.35794336  0.88197503     0.07100
N359        N  0.61302410  0.46394238  0.84218743     0.01600
N360        N  0.45875620  0.48973973  0.76187802     0.01300
C361        C  0.41390911  0.49876296  0.70770960     0.43000
N362        N  0.45629907  0.29544507  0.89261567    -0.25300
C363        C  0.64798295  0.34440092  0.71999442    -0.06200
N364        N  0.58801227  0.26540515  0.90476972    -0.46400
N365        N  0.45515241  0.52116905  0.72189194    -0.46600
C366        C  0.62449188  0.29660299  0.70860853     0.42700
N367        N  0.61862778  0.46832992  0.74261822     0.01600
N368        N  0.45926682  0.29696346  0.79472031    -0.25300
N369        N  0.61623244  0.34442779  0.85909360    -0.25800
N370        N  0.42140177  0.33168242  0.79504449     0.01200
H371        H  0.47349629  0.22843317  0.76349311     0.07100
H372        H  0.35569411  0.42504281  0.74595611     0.07200
N373        N  0.57901368  0.50120889  0.74371867    -0.25800
N374        N  0.41743459  0.45109539  0.87285016    -0.25400
N375        N  0.57920099  0.30770650  0.77405951     0.01600
C376        C  0.62252414  0.50996509  0.89290810     0.43000
C377        C  0.44431561  0.25936087  0.93315584    -0.06700
N378        N  0.42140849  0.44917758  0.77518836    -0.25400
H379        H  0.34469748  0.43417428  0.92653708     0.07100
N380        N  0.64341597  0.47018732  0.87225792    -0.46700
H381        H  0.46699923  0.22480588  0.94273120     0.07100
C382        C  0.40286835  0.28172262  0.74951108     0.42800
C383        C  0.65300974  0.33395513  0.88592480    -0.06200
Co384      Co  0.51843654  0.29976037  0.83359769     0.73800
N385        N  0.38095466  0.32084196  0.93147319    -0.46400
C386        C  0.64075159  0.52716689  0.67800964     0.43100
N387        N  0.58230002  0.27635760  0.74381413    -0.46400
Co388      Co  0.41853799  0.39057475  0.83443261     0.73900
C389        C  0.39082013  0.45177745  0.74343301    -0.06700
C390        C  0.57812641  0.52962597  0.87110875    -0.06300
N391        N  0.61706435  0.34797431  0.76108715    -0.25800
N392        N  0.44497865  0.52934053  0.88446452    -0.46500
H393        H  0.56481884  0.57328227  0.69838007     0.07100
C394        C  0.45080516  0.26324349  0.76737027    -0.06700
Cl395      Cl  0.51799310  0.39818271  0.81777582    -0.49700
C396        C  0.39454355  0.27681210  0.95912620     0.42900
H397        H  0.68039018  0.37348144  0.69992932     0.07100
N398        N  0.38692489  0.32382555  0.76880611    -0.46400
C399        C  0.34937759  0.19586844  0.67514998    -0.26100
C400        C  0.29321577  0.20078628  0.68788725    -0.14100
C401        C  0.27389607  0.23339230  0.71948898     0.36500
C402        C  0.31092678  0.25905930  0.73867668    -0.25500
C403        C  0.36706700  0.25298227  0.72720865    -0.14700
C404        C  0.38642908  0.22153705  0.69425083     0.37600
N405        N  0.44308109  0.21549922  0.67866262    -0.89000
H406        H  0.36464786  0.17040835  0.65129268     0.18700
H407        H  0.29549788  0.28358630  0.76329796     0.18700
N408        N  0.21671319  0.24043518  0.73195937    -0.88000
H409        H  0.45801489  0.19332474  0.70608296     0.36100
H410        H  0.46356910  0.25367924  0.66752712     0.41200
H411        H  0.20480006  0.26098961  0.70216933     0.40800
H412        H  0.20911057  0.26482652  0.75632790     0.35700
C413        C  0.36544771  0.19446741  0.02160895    -0.26100
C414        C  0.36043800  0.24941298  0.00456668    -0.14100
C415        C  0.32924851  0.27657565  0.53332499     0.36500
C416        C  0.29642693  0.24601746  0.57416818    -0.25500
C417        C  0.29996591  0.19025570  0.58691562    -0.14700
C418        C  0.33885498  0.16460768  0.55947103     0.37600
N419        N  0.34740441  0.10839302  0.57255227    -0.89000
H420        H  0.39496778  0.17277683  0.00229341     0.18700
H421        H  0.26695027  0.26538685  0.59585329     0.18700
N422        N  0.32494871  0.33379531  0.52094763    -0.88000
H423        H  0.33439932  0.08888823  0.54879704     0.36100
H424        H  0.32450615  0.09101251  0.60544233     0.41200
H425        H  0.35400694  0.35384362  0.01687058     0.40800
H426        H  0.29582957  0.34645021  0.54592171     0.35700
C427        C  0.21036601  0.13362295  0.54480017    -0.26100
C428        C  0.21401216  0.10027015  0.58731425    -0.14100
C429        C  0.20465002  0.04399944  0.59368551     0.36500
C430        C  0.18527313  0.02281822  0.56003667    -0.25500
C431        C  0.17668112  0.05654623  0.51943758    -0.14700
C432        C  0.19233354  0.11191868  0.51053496     0.37600
N433        N  0.18690141  0.14638558  0.46795609    -0.89000
H434        H  0.21828684  0.17681309  0.53919412     0.18700
H435        H  0.17418199  0.98000160  0.56655668     0.18700
N436        N  0.21332441  0.00875429  0.63505885    -0.88000
H437        H  0.16101050  0.17620271  0.47592662     0.36100
H438        H  0.22515915  0.16535664  0.45143708     0.41200
H439        H  0.25495551  0.01174576  0.63463170     0.40800
H440        H  0.20326047  0.96860927  0.63490145     0.35700
C441        C  0.81996956  0.10280088  0.48692498    -0.26100
C442        C  0.80113893  0.09351236  0.53515914    -0.14100
C443        C  0.83670734  0.07391357  0.56453584     0.36500
C444        C  0.88707421  0.05722035  0.54584642    -0.25500
C445        C  0.90429172  0.06180763  0.49793900    -0.14700
C446        C  0.86481213  0.08458377  0.96814763     0.37600
N447        N  0.87895576  0.09292111  0.91841655    -0.89000
H448        H  0.78543352  0.11417202  0.96720797     0.18700
H449        H  0.91215816  0.03855252  0.56919971     0.18700
N450        N  0.82152613  0.07024198  0.61363815    -0.88000
H451        H  0.85151205  0.06895719  0.90784433     0.36100
H452        H  0.91780977  0.08077497  0.90722747     0.41200
H453        H  0.85040857  0.09349913  0.62327814     0.40800
H454        H  0.82282622  0.03010452  0.63031001     0.35700
C455        C  0.60171277  0.23663719  0.65951883    -0.26100
C456        C  0.64176063  0.26934226  0.66960320    -0.14100
C457        C  0.69676775  0.26759586  0.64756153     0.36500
C458        C  0.71038187  0.23085758  0.61887589    -0.25500
C459        C  0.67051903  0.19526565  0.61223586    -0.14700
C460        C  0.61572715  0.19906178  0.63183851     0.37600
N461        N  0.57451001  0.16295852  0.62555159    -0.89000
H462        H  0.55936330  0.23767363  0.67573393     0.18700
H463        H  0.75290671  0.22698314  0.60499965     0.18700
N464        N  0.74007670  0.29922559  0.65608145    -0.88000
H465        H  0.54629557  0.18601373  0.61057005     0.36100
H466        H  0.55444981  0.14138685  0.65827059     0.41200
H467        H  0.73900331  0.29126725  0.69171528     0.40800
H468        H  0.73457846  0.33988344  0.64440984     0.35700
C469        C  0.67172462  0.15886072  0.49281920    -0.26100
C470        C  0.71250601  0.18085259  0.01307424    -0.14100
C471        C  0.72592325  0.23691382  0.00047274     0.36500
C472        C  0.70131431  0.26885530  0.96751366    -0.25500
C473        C  0.66470423  0.24573316  0.94604663    -0.14700
C474        C  0.65594321  0.18903477  0.95513531     0.37600
N475        N  0.62214131  0.16374818  0.93105089    -0.89000
H476        H  0.65670793  0.11737741  0.50771748     0.18700
H477        H  0.70953038  0.31217533  0.95986757     0.18700
N478        N  0.76287726  0.26257740  0.02149927    -0.88000
H479        H  0.59810286  0.12395474  0.45860153     0.36100
H480        H  0.64163564  0.17150535  0.89600860     0.41200
H481        H  0.79397294  0.28342033  0.99484974     0.40800
H482        H  0.78214560  0.23354706  0.04132599     0.35700
C483        C  0.20773453  0.71252342  0.48084506    -0.26100
C484        C  0.23760436  0.71097359  0.51550276    -0.14100
C485        C  0.25034812  0.75920386  0.52865309     0.36500
C486        C  0.22631606  0.80638511  0.51234538    -0.25500
C487        C  0.19096906  0.80667054  0.48171708    -0.14700
C488        C  0.18518740  0.76038411  0.46315312     0.37600
N489        N  0.15193513  0.76786577  0.92910046    -0.89000
H490        H  0.19764775  0.67559244  0.47064563     0.18700
H491        H  0.23111886  0.84108095  0.52734069     0.18700
N492        N  0.28286282  0.75865352  0.56274822    -0.88000
H493        H  0.12087701  0.73731358  0.94311034     0.36100
H494        H  0.17480198  0.75896889  0.89884321     0.41200
H495        H  0.25944584  0.77066279  0.59132622     0.40800
H496        H  0.31579751  0.78708646  0.54851525     0.35700
C497        C  0.32457060  0.52412682  0.61966273    -0.26100
C498        C  0.32058889  0.57958660  0.61499516    -0.14100
C499        C  0.35203531  0.60919773  0.63639725     0.36500
C500        C  0.38553697  0.58247044  0.66408015    -0.25500
C501        C  0.38665688  0.52634151  0.67169848    -0.14700
C502        C  0.35733330  0.49708369  0.64814405     0.33700
N503        N  0.35999104  0.43994069  0.65368748    -0.89000
H504        H  0.30013588  0.50148540  0.60316145     0.18700
H505        H  0.40791599  0.60530518  0.68197159     0.18700
N506        N  0.34786788  0.66610855  0.63178833    -0.88000
H507        H  0.37386782  0.43151432  0.62091100     0.36100
H508        H  0.32055619  0.42195831  0.66661856     0.41200
H509        H  0.38672454  0.68516486  0.61804067     0.40800
H510        H  0.33473418  0.67381450  0.66491707     0.35700
C511        C  0.39904740  0.58684800  0.96051879    -0.26100
C512        C  0.36931739  0.54739935  0.94672140    -0.14100
C513        C  0.31215051  0.54274510  0.96135379     0.36500
C514        C  0.28300201  0.57285690  0.49368482    -0.25500
C515        C  0.31173045  0.60825422  0.51207946    -0.14700
C516        C  0.36919040  0.61390404  0.49858254     0.37600
N517        N  0.40132290  0.64975098  0.51558104    -0.89000
H518        H  0.44285521  0.59198429  0.94881948     0.18700
H519        H  0.23909795  0.56757884  0.50444335     0.18700
N520        N  0.27960834  0.50584873  0.94604845    -0.88000
H521        H  0.42439678  0.62621282  0.53628800     0.36100
H522        H  0.37672226  0.67150630  0.53646095     0.41200
H523        H  0.25243895  0.52779354  0.92878421     0.40800
H524        H  0.25696979  0.47932670  0.97532723     0.35700
C525        C  0.86220762  0.79983033  0.04137368    -0.26100
C526        C  0.91293687  0.79618728  0.01271747    -0.14100
C527        C  0.92015170  0.75291154  0.98984237     0.36500
C528        C  0.87549185  0.71787510  0.99198270    -0.25500
C529        C  0.82303109  0.72762051  0.01373568    -0.14700
C530        C  0.81670813  0.76678965  0.04125377     0.37600
N531        N  0.76438524  0.77721768  0.06596572    -0.89000
H532        H  0.85678144  0.83201383  0.06027909     0.18700
H533        H  0.88056135  0.68783376  0.97077561     0.18700
N534        N  0.97149139  0.74725515  0.96101259    -0.88000
H535        H  0.76449282  0.77466070  0.59914768     0.36100
H536        H  0.73281981  0.75054951  0.56308979     0.41200
H537        H  0.96587072  0.74928644  0.92724390     0.40800
H538        H  0.98398293  0.70902516  0.97308933     0.35700
C539        C  0.74921353  0.58379119  0.56710448    -0.26100
C540        C  0.72533766  0.63003697  0.54814719    -0.14100
C541        C  0.67378490  0.64152255  0.57157613     0.36500
C542        C  0.64797975  0.60712413  0.61307976    -0.25500
C543        C  0.67151297  0.56091064  0.63290345    -0.14700
C544        C  0.72276535  0.54881433  0.60912388     0.37600
N545        N  0.74750571  0.50100410  0.62706695    -0.89000
H546        H  0.78794427  0.57435957  0.54833442     0.18700
H547        H  0.60837917  0.61711793  0.62937803     0.18700
N548        N  0.64499330  0.68640130  0.55343820    -0.88000
H549        H  0.78554941  0.49887849  0.60604288     0.36100
H550        H  0.72316632  0.46792871  0.62504841     0.41200
H551        H  0.66721407  0.70971504  0.52241139     0.40800
H552        H  0.63916127  0.71139104  0.57738532     0.35700
C553        C  0.64954088  0.59991245  0.97322602    -0.26100
C554        C  0.70566607  0.61093085  0.95781527    -0.14100
C555        C  0.73509898  0.58221615  0.92691427     0.36500
C556        C  0.70739070  0.54647095  0.90828354    -0.25500
C557        C  0.65051108  0.53922915  0.92010346    -0.14700
C558        C  0.62160778  0.56399761  0.95499074     0.37600
N559        N  0.56424234  0.55347618  0.97282711    -0.89000
H560        H  0.62670367  0.62185339  0.99708227     0.18700
H561        H  0.73020059  0.52705838  0.88233659     0.18700
N562        N  0.79293999  0.59201780  0.91227372    -0.88000
H563        H  0.55547682  0.51182458  0.98315057     0.36100
H564        H  0.54317711  0.56899181  0.94719052     0.41200
H565        H  0.80213131  0.60666430  0.87636693     0.40800
H566        H  0.81049554  0.55522807  0.91933912     0.35700
loop_ 
_geom_bond_atom_site_label_1 
_geom_bond_atom_site_label_2 
_geom_bond_distance 
_geom_bond_site_symmetry_2 
_ccdc_geom_bond_type 
N1            C2   1.354   1_554  A
N1          C288   1.352   1_554  A
N1          C257   1.438       .  S
C2          C286   1.385       .  A
C2          C529   1.471   1_556  S
C3            C4   1.368       .  A
C3          C285   1.385       .  A
C3            H6   1.083       .  S
C4            C5   1.378       .  A
C4            H7   1.082       .  S
C5          N284   1.353       .  A
C5          C271   1.466       .  S
N8           C12   1.354       .  A
N8            C9   1.359       .  A
N8          C232   1.445       .  S
C9           C10   1.386       .  A
C9          C201   1.476       .  S
C10          C11   1.365       .  A
C10          H13   1.083       .  S
C11          C12   1.376       .  A
C11          H14   1.082       .  S
C12         C215   1.464       .  S
N15          C19   1.354       .  A
N15          C16   1.355       .  A
N15         C470   1.439       .  S
C16          C17   1.386       .  A
C16         C159   1.483       .  S
C17          C18   1.371       .  A
C17          H20   1.082       .  S
C18          C19   1.378       .  A
C18          H21   1.082       .  S
C19         C176   1.472       .  S
N22          C27   1.351       .  A
N22          C26   1.350       .  A
N22          H54   1.044       .  S
N23          C30   1.355       .  A
N23          C31   1.348       .  A
N24          C29   1.356       .  A
N24          C28   1.354       .  A
N24          H55   1.044   1_545  S
N25          C32   1.351       .  A
N25          C33   1.351       .  A
C26          C34   1.388       .  A
C26         C325   1.412       .  A
C27          C43   1.407   1_455  A
C27          C35   1.386       .  A
C28          C36   1.390   1_556  A
C28          C45   1.420       .  A
C29          C37   1.387   1_556  A
C29         C327   1.419   1_455  A
C30          C42   1.417       .  A
C30          C38   1.385       .  A
C31          C45   1.411   1_565  A
C31          C39   1.386       .  A
C32          C40   1.385       .  A
C32          C43   1.414       .  A
C33          C41   1.388       .  A
C33          C44   1.413   1_565  A
C34          C35   1.373       .  A
C34          H46   1.082       .  S
C35          H47   1.082   1_455  S
C36          C37   1.371       .  A
C36          H48   1.081       .  S
C37          H49   1.082   1_455  S
C38          C39   1.379       .  A
C38          H50   1.082       .  S
C39          H51   1.082   1_565  S
C40          C41   1.370       .  A
C40          H52   1.082       .  S
C41          H53   1.080       .  S
C42         C309   1.413       .  A
C42         C204   1.501       .  S
C43         C243   1.493       .  S
C44         C312   1.417   1_655  A
C44         C445   1.491       .  S
C45         C148   1.486   1_556  S
N56          C60   1.359       .  A
N56          C57   1.357       .  A
N56         C134   1.439       .  S
C57          C58   1.383       .  A
C57         C145   1.486       .  S
C58          C59   1.374       .  A
C58          H61   1.082       .  S
C59          C60   1.385       .  A
C59          H62   1.082       .  S
C60         C117   1.489       .  S
C63          N81   1.350       .  A
C63         C100   1.467       .  S
C63         C190   1.491       .  S
N64          N81   1.323       .  A
N64          N86   1.318       .  A
N64        Co101   2.080       .  S
C65          N90   1.336       .  A
C65         C103   1.462       .  S
C65         H110   1.081       .  S
H66         C107   1.080       .  S
C67          N91   1.340       .  A
C67          C71   1.466       .  S
C67          H96   1.081       .  S
Co68         N86   2.095       .  S
Co68         N76   2.085       .  S
Co68        N108   2.089       .  S
Co68         N84   2.099       .  S
Co68       Cl112   2.460       .  S
N69         C107   1.331       .  A
N69          N76   1.321       .  A
N69         Co70   2.069       .  S
Co70         N73   2.090       .  S
Co70         N90   2.075       .  S
Co70         N77   2.081       .  S
Co70       Cl112   2.446       .  S
C71         N109   1.353       .  A
C71         C229   1.492       .  S
N72          N79   1.320       .  A
N72         N102   1.323       .  A
N72        Co105   2.080       .  S
N73          N91   1.317       .  A
N73         N109   1.328       .  A
N74         C103   1.356       .  A
N74          N84   1.329       .  A
H75         C100   1.081       .  S
N76          N97   1.324       .  A
N77          N95   1.319       .  A
N77          N82   1.324       .  A
C78          N82   1.351       .  A
C78         C106   1.455       .  S
C78         C218   1.470       .  S
N79          C94   1.341       .  A
N79        Co101   2.090       .  S
C80         N108   1.343       .  A
C80          C83   1.467       .  S
C80         H114   1.080       .  S
C83         N104   1.346       .  A
C83         C173   1.475       .  S
N84          N90   1.318       .  A
N85         C111   1.342       .  A
N85          N87   1.315       .  A
N85        Co101   2.081       .  S
N86         C100   1.346       .  A
N87         N115   1.322       .  A
N87        Co105   2.075       .  S
H88         C111   1.079       .  S
H89         C106   1.081       .  S
N91        Co105   2.082       .  S
N92         N104   1.319       .  A
N92         N108   1.321       .  A
N92        Co101   2.080       .  S
C93          N97   1.352       .  A
C93         C107   1.455       .  S
C93         C274   1.464       .  S
C94         C113   1.463       .  S
C94          H98   1.081       .  S
N95         C106   1.335       .  A
N95        Co105   2.074       .  S
C99         N115   1.350       .  A
C99         C111   1.466       .  S
C99         C120   1.485       .  S
Co101      Cl112   2.442       .  S
N102        C113   1.349       .  A
C103        C260   1.495       .  S
Co105      Cl112   2.451       .  S
C113        C131   1.479       .  S
C116        C117   1.404       .  A
C116        C121   1.400       .  A
C116        H123   1.082       .  S
C117        C118   1.413       .  A
C118        C119   1.405       .  A
C118        N125   1.438       .  S
C119        C120   1.405       .  A
C119        H124   1.084       .  S
C120        C121   1.416       .  A
C121        N122   1.431       .  S
N122        H126   1.043       .  S
N122        H127   1.045       .  S
N125        H128   1.045       .  S
N125        H129   1.046       .  S
C130        C131   1.405       .  A
C130        C418   1.399       .  A
C130        H137   1.083       .  S
C131        C415   1.414       .  A
C132        C133   1.405       .  A
C132        C414   1.416       .  A
C132        N139   1.438       .  S
C133        C134   1.400       .  A
C133        H138   1.083       .  S
C134        C135   1.413       .  A
C135        C413   1.401       .  A
C135        N136   1.437       .  S
N136        H140   1.045       .  S
N136        H141   1.043       .  S
N139        H143   1.046       .  S
N139        H425   1.045       .  S
H142        N422   1.045       .  S
C144        C145   1.407       .  A
C144        C149   1.406       .  A
C144        H151   1.082       .  S
C145        C146   1.413       .  A
C146        C147   1.399       .  A
C146        N153   1.438       .  S
C147        C148   1.401       .  A
C147        H152   1.084   1_545  S
C148        C149   1.407       .  A
C149        N150   1.432   1_554  S
N150        H154   1.045       .  S
N150        H155   1.046       .  S
N153        H156   1.045       .  S
N153        H157   1.047   1_545  S
C158        C159   1.405   1_556  A
C158        C446   1.410       .  A
C158        H448   1.083       .  S
C159        C160   1.410       .  A
C160        C161   1.392       .  A
C160        N167   1.433       .  S
C161        C162   1.400   1_554  A
C161        H166   1.084       .  S
C162        C446   1.420       .  A
C162        C327   1.493       .  S
C163        C441   1.408       .  A
C163        C445   1.419       .  A
C163        N164   1.437       .  S
N164        H168   1.045       .  S
N164        H169   1.045       .  S
H165        C441   1.083       .  S
N167        H170   1.046       .  S
N167        H171   1.045       .  S
C172        C173   1.407       .  A
C172        C177   1.404       .  A
C172        H179   1.083       .  S
C173        C174   1.413       .  A
C174        C175   1.395       .  A
C174        N181   1.431       .  S
C175        C176   1.402       .  A
C175        H180   1.083       .  S
C176        C177   1.405       .  A
C177        N178   1.437       .  S
N178        H182   1.047       .  S
N178        H183   1.044       .  S
N181        H184   1.045       .  S
N181        H185   1.044       .  S
C186        C470   1.403   1_556  A
C186        C474   1.402       .  A
C186        H193   1.083       .  S
C187        N298   1.441       .  S
C187        C188   1.410       .  A
C187        C469   1.403       .  A
C188        C189   1.408       .  A
C188        N195   1.436       .  S
C189        C190   1.409       .  A
C189        H194   1.083       .  S
C190        C191   1.416       .  A
C191        C469   1.402       .  A
C191        N192   1.438       .  S
N192        H197   1.046       .  S
N192        H479   1.046       .  S
N195        H198   1.045       .  S
N195        H199   1.045       .  S
H196        N475   1.044       .  S
C200        C201   1.398   1_556  A
C200        C205   1.407       .  A
C200        H207   1.084       .  S
C201        C202   1.411       .  A
C202        C203   1.404       .  A
C202        N209   1.433       .  S
C203        C204   1.404   1_554  A
C203        H208   1.083       .  S
C204        C205   1.416       .  A
C205        N489   1.432       .  S
N206        C488   1.432       .  S
N206        H210   1.046       .  S
N206        H211   1.046       .  S
N209        H212   1.046       .  S
N209        H213   1.045       .  S
C214        C215   1.397       .  A
C214        C219   1.401       .  A
C214        H221   1.084       .  S
C215        C216   1.406       .  A
C216        C217   1.399       .  A
C216        N223   1.433       .  S
C217        C218   1.401       .  A
C217        H222   1.084       .  S
C218        C219   1.412       .  A
C219        N220   1.432       .  S
N220        H224   1.045       .  S
N220        H225   1.046       .  S
N223        H226   1.046       .  S
N223        H227   1.045       .  S
C228        C229   1.407       .  A
C228        C516   1.409       .  A
C228        H235   1.084       .  S
C229        C230   1.413       .  A
C230        C514   1.404       .  A
C230        N237   1.431       .  S
C231        C232   1.402   1_556  A
C231        C513   1.404       .  A
C231        H236   1.083   1_556  S
C232        C233   1.414   1_554  A
C233        C511   1.411       .  A
C233        N234   1.436   1_556  S
N234        H238   1.046       .  S
N234        H239   1.044       .  S
N237        H240   1.045       .  S
N237        H241   1.046       .  S
C242        C243   1.406       .  A
C242        C247   1.401       .  A
C242        H249   1.084       .  S
C243        C244   1.410       .  A
C244        C245   1.399       .  A
C244        N251   1.433       .  S
C245        C246   1.404       .  A
C245        H250   1.085       .  S
C246        C247   1.411       .  A
C246        C285   1.471       .  S
C247        N248   1.436       .  S
N248        H535   1.045       .  S
N248        H536   1.043       .  S
N251        H254   1.046       .  S
N251        H255   1.046       .  S
H252        N531   1.045       .  S
H253        N531   1.043       .  S
C256        C257   1.401       .  A
C256        C261   1.414       .  A
C256        H263   1.083       .  S
C257        C258   1.414       .  A
C258        C259   1.396       .  A
C258        N265   1.440       .  S
C259        C260   1.406       .  A
C259        H264   1.081       .  S
C260        C261   1.418       .  A
C261        N262   1.436       .  S
N262        H266   1.046       .  S
N262        H267   1.045       .  S
N265        H268   1.042       .  S
N265        H269   1.046       .  S
C270        C271   1.398       .  A
C270        C275   1.394       .  A
C270        H277   1.082       .  S
C271        C272   1.411       .  A
C272        C273   1.400       .  A
C272        N279   1.439       .  S
C273        C274   1.400       .  A
C273        H278   1.084       .  S
C274        C275   1.414       .  A
C275        N276   1.434       .  S
N276        H280   1.046       .  S
N276        H281   1.042       .  S
N279        H282   1.044       .  S
N279        H283   1.046       .  S
N284        C285   1.356       .  A
N284        C540   1.442       .  S
C286        C287   1.368       .  A
C286        H289   1.083       .  S
C287        C288   1.377       .  A
C287        H290   1.082       .  S
C288        C554   1.466       .  S
N291        C295   1.353       .  A
N291        C292   1.358       .  A
N291        C515   1.445       .  S
C292        C293   1.386       .  A
C292        C484   1.474       .  S
C293        C294   1.366       .  A
C293        H296   1.083       .  S
C294        C295   1.376       .  A
C294        H297   1.083       .  S
C295        C498   1.460       .  S
N298        C302   1.354       .  A
N298        C299   1.356       .  A
C299        C300   1.387       .  A
C299        C442   1.481       .  S
C300        C301   1.367       .  A
C300        H303   1.083       .  S
C301        C302   1.378       .  A
C301        H304   1.082       .  S
C302        C459   1.472       .  S
N305        C310   1.350   1_556  A
N305        C309   1.350       .  A
N305        H337   1.043       .  S
N306        C313   1.354       .  A
N306        C314   1.348       .  A
N307        C312   1.356       .  A
N307        C311   1.354       .  A
N307        H338   1.044   1_545  S
N308        C315   1.351       .  A
N308        C316   1.352       .  A
C309        C317   1.388   1_556  A
C310        C326   1.408   1_455  A
C310        C318   1.386       .  A
C311        C319   1.391       .  A
C311        C328   1.421       .  A
C312        C320   1.385       .  A
C313        C325   1.416       .  A
C313        C321   1.386       .  A
C314        C328   1.411   1_565  A
C314        C322   1.386       .  A
C315        C323   1.385       .  A
C315        C326   1.414   1_556  A
C316        C324   1.387       .  A
C316        C327   1.413   1_565  A
C317        C318   1.374       .  A
C317        H329   1.082       .  S
C318        H330   1.082   1_455  S
C319        C320   1.371       .  A
C319        H331   1.080       .  S
C320        H332   1.082   1_455  S
C321        C322   1.378       .  A
C321        H333   1.082       .  S
C322        H334   1.083   1_565  S
C323        C324   1.369       .  A
C323        H335   1.082       .  S
C324        H336   1.079       .  S
C325        C487   1.498       .  S
C326        C526   1.492       .  S
C328        C431   1.489       .  S
N339        C343   1.354       .  A
N339        C340   1.354       .  A
N339        C417   1.436       .  S
C340        C341   1.384       .  A
C340        C428   1.483       .  S
C341        C342   1.375       .  A
C341        H344   1.082       .  S
C342        C343   1.383       .  A
C342        H345   1.082       .  S
C343        C400   1.482       .  S
C346        N364   1.349       .  A
C346        C383   1.462       .  S
C346        C473   1.482       .  S
N347        N364   1.322       .  A
N347        N369   1.320       .  A
N347       Co384   2.076       .  S
C348        N373   1.333       .  A
C348        C386   1.461       .  S
C348        H393   1.080       .  S
H349        C390   1.079       .  S
C350        N374   1.345       .  A
C350        C354   1.472       .  S
C350        H379   1.081       .  S
Co351       N369   2.094       .  S
Co351       N359   2.095       .  S
Co351       N391   2.090       .  S
Co351       N367   2.106       .  S
Co351      Cl395   2.460       .  S
N352        C390   1.332       .  A
N352        N359   1.319       .  A
N352       Co353   2.068       .  S
Co353       N356   2.085       .  S
Co353       N373   2.070       .  S
Co353       N360   2.081       .  S
Co353      Cl395   2.446       .  S
C354        N392   1.351       .  A
C354        C512   1.496       .  S
N355        N362   1.321       .  A
N355        N385   1.323       .  A
N355       Co388   2.077       .  S
N356        N374   1.318       .  A
N356        N392   1.327       .  A
N357        C386   1.359       .  A
N357        N367   1.332       .  A
H358        C383   1.081       .  S
N359        N380   1.326       .  A
N360        N378   1.318       .  A
N360        N365   1.324       .  A
C361        N365   1.352       .  A
C361        C389   1.453       .  S
C361        C501   1.467       .  S
N362        C377   1.344       .  A
N362       Co384   2.101       .  S
C363        N391   1.345       .  A
C363        C366   1.468       .  S
C363        H397   1.080       .  S
C366        N387   1.347       .  A
C366        C456   1.480       .  S
N367        N373   1.317       .  A
N368        C394   1.343       .  A
N368        N370   1.315       .  A
N368       Co384   2.078       .  S
N369        C383   1.343       .  A
N370        N398   1.321       .  A
N370       Co388   2.084       .  S
H371        C394   1.079       .  S
H372        C389   1.081       .  S
N374       Co388   2.101       .  S
N375        N387   1.319       .  A
N375        N391   1.321       .  A
N375       Co384   2.081       .  S
C376        N380   1.355       .  A
C376        C390   1.455       .  S
C376        C557   1.473       .  S
C377        C396   1.468       .  S
C377        H381   1.081       .  S
N378        C389   1.335       .  A
N378       Co388   2.066       .  S
C382        N398   1.351       .  A
C382        C394   1.467       .  S
C382        C403   1.484       .  S
Co384      Cl395   2.450       .  S
N385        C396   1.348       .  A
C386        C543   1.500       .  S
Co388      Cl395   2.446       .  S
C396        C414   1.485   1_556  S
C399        C400   1.404       .  A
C399        C404   1.400       .  A
C399        H406   1.083       .  S
C400        C401   1.408       .  A
C401        C402   1.401       .  A
C401        N408   1.438       .  S
C402        C403   1.406       .  A
C402        H407   1.083       .  S
C403        C404   1.417       .  A
C404        N405   1.431       .  S
N405        H409   1.043       .  S
N405        H410   1.045       .  S
N408        H411   1.045       .  S
N408        H412   1.046       .  S
C413        C414   1.405       .  A
C413        H420   1.083       .  S
C415        C416   1.403       .  A
C415        N422   1.438       .  S
C416        C417   1.401       .  A
C416        H421   1.084       .  S
C417        C418   1.412       .  A
C418        N419   1.436       .  S
N419        H423   1.045       .  S
N419        H424   1.043       .  S
N422        H426   1.047       .  S
C427        C428   1.406       .  A
C427        C432   1.407       .  A
C427        H434   1.083       .  S
C428        C429   1.410       .  A
C429        C430   1.400       .  A
C429        N436   1.438       .  S
C430        C431   1.402       .  A
C430        H435   1.084   1_545  S
C431        C432   1.408       .  A
C432        N433   1.432       .  S
N433        H437   1.045       .  S
N433        H438   1.045       .  S
N436        H439   1.045       .  S
N436        H440   1.046   1_545  S
C441        C442   1.403       .  A
C442        C443   1.412       .  A
C443        C444   1.393       .  A
C443        N450   1.434       .  S
C444        C445   1.400       .  A
C444        H449   1.084       .  S
C446        N447   1.438       .  S
N447        H451   1.045       .  S
N447        H452   1.044       .  S
N450        H453   1.045       .  S
N450        H454   1.046       .  S
C455        C456   1.406       .  A
C455        C460   1.398       .  A
C455        H462   1.083       .  S
C456        C457   1.416       .  A
C457        C458   1.400       .  A
C457        N464   1.431       .  S
C458        C459   1.403       .  A
C458        H463   1.083       .  S
C459        C460   1.401       .  A
C460        N461   1.432       .  S
N461        H465   1.046       .  S
N461        H466   1.045       .  S
N464        H467   1.045       .  S
N464        H468   1.044       .  S
C469        H476   1.084       .  S
C470        C471   1.411       .  A
C471        C472   1.405   1_554  A
C471        N478   1.436       .  S
C472        C473   1.405       .  A
C472        H477   1.083       .  S
C473        C474   1.413       .  A
C474        N475   1.438       .  S
N475        H480   1.047       .  S
N478        H481   1.044   1_554  S
N478        H482   1.045       .  S
C483        C484   1.398       .  A
C483        C488   1.407       .  A
C483        H490   1.084       .  S
C484        C485   1.410       .  A
C485        C486   1.401       .  A
C485        N492   1.433       .  S
C486        C487   1.403       .  A
C486        H491   1.083       .  S
C487        C488   1.417       .  A
N489        H493   1.046       .  S
N489        H494   1.045       .  S
N492        H495   1.046       .  S
N492        H496   1.045       .  S
C497        C498   1.396       .  A
C497        C502   1.400       .  A
C497        H504   1.084       .  S
C498        C499   1.406       .  A
C499        C500   1.396       .  A
C499        N506   1.433       .  S
C500        C501   1.400       .  A
C500        H505   1.084       .  S
C501        C502   1.412       .  A
C502        N503   1.432       .  S
N503        H507   1.046       .  S
N503        H508   1.046       .  S
N506        H509   1.045       .  S
N506        H510   1.045       .  S
C511        C512   1.411       .  A
C511        H518   1.083       .  S
C512        C513   1.412       .  A
C513        N520   1.431       .  S
C514        C515   1.402       .  A
C514        H519   1.084       .  S
C515        C516   1.416       .  A
C516        N517   1.436       .  S
N517        H521   1.047       .  S
N517        H522   1.043       .  S
N520        H523   1.046       .  S
N520        H524   1.046       .  S
C525        C526   1.407       .  A
C525        C530   1.402       .  A
C525        H532   1.084       .  S
C526        C527   1.408   1_554  A
C527        C528   1.398       .  A
C527        N534   1.433       .  S
C528        C529   1.403   1_556  A
C528        H533   1.085       .  S
C529        C530   1.411       .  A
C530        N531   1.436       .  S
N534        H537   1.045       .  S
N534        H538   1.046       .  S
C539        C540   1.404       .  A
C539        C544   1.417       .  A
C539        H546   1.083       .  S
C540        C541   1.415       .  A
C541        C542   1.396       .  A
C541        N548   1.440       .  S
C542        C543   1.407       .  A
C542        H547   1.080       .  S
C543        C544   1.418       .  A
C544        N545   1.436       .  S
N545        H549   1.046       .  S
N545        H550   1.046       .  S
N548        H551   1.042       .  S
N548        H552   1.045       .  S
C553        C554   1.397       .  A
C553        C558   1.397       .  A
C553        H560   1.082       .  S
C554        C555   1.405       .  A
C555        C556   1.398       .  A
C555        N562   1.433       .  S
C556        C557   1.401       .  A
C556        H561   1.084       .  S
C557        C558   1.419       .  A
C558        N559   1.433       .  S
N559        H563   1.045       .  S
N559        H564   1.041       .  S
N562        H565   1.045       .  S
N562        H566   1.045       .  S
