geometry optimzed in LAMMPS
_audit_creation_date              2020-11-30 
_audit_creation_method            'lammps2cif' 
_symmetry_space_group_name_H-M    'P1' 
_symmetry_Int_Tables_number       1 
_symmetry_cell_setting            triclinic 
loop_ 
_symmetry_equiv_pos_as_xyz 
  x,y,z 
_cell_length_a                    39.23553689 
_cell_length_b                    39.343837703550975 
_cell_length_c                    39.14413194428199 
_cell_angle_alpha                 90.6642972545726 
_cell_angle_beta                  90.25386858088902 
_cell_angle_gamma                 89.24173241967164 
loop_ 
_atom_site_label 
_atom_site_type_symbol 
_atom_site_fract_x 
_atom_site_fract_y 
_atom_site_fract_z 
_atom_site_charge 
N1          N  0.31324566  0.23896118  0.21098634    -0.25800
N2          N  0.29934008  0.26621880  0.19675697    -0.33700
C3          C  0.31617074  0.27275764  0.16756221     0.02500
C4          C  0.34177016  0.24835798  0.16356209     0.08500
C5          C  0.33900152  0.22732198  0.19137005    -0.04600
H6          H  0.31031709  0.29380491  0.15095056     0.09200
H7          H  0.35393523  0.20465179  0.19657754     0.10400
Cu8        Cu  0.25723163  0.29217735  0.21782863     0.44200
Cu9        Cu  0.29678646  0.21752885  0.25610351     0.42000
Cu10       Cu  0.22313682  0.25472084  0.29584860     0.43900
N11         N  0.21509176  0.31182059  0.24470346    -0.33200
N12         N  0.20305051  0.29820289  0.27294431    -0.27500
C13         C  0.17600422  0.31669191  0.28386147    -0.03600
C14         C  0.17072663  0.34312301  0.26141517     0.08600
C15         C  0.19583717  0.33934809  0.23684795     0.02400
H16         H  0.16156771  0.31138603  0.30661386     0.10100
H17         H  0.19944695  0.35483207  0.21454431     0.09200
N18         N  0.24805206  0.21172122  0.31470890    -0.34700
N19         N  0.27566478  0.19841678  0.30029706    -0.26900
C20         C  0.28622122  0.17124972  0.31829875    -0.02100
C21         C  0.26401398  0.16730195  0.34523991     0.06500
C22         C  0.24004248  0.19324445  0.34223517     0.04600
H23         H  0.30852449  0.15590492  0.31234268     0.09700
H24         H  0.21813279  0.19804791  0.35833057     0.08600
N25         N  0.14390117  0.36854747  0.26292342    -0.02000
C26         C  0.14729869  0.40295034  0.26164723     0.00600
C27         C  0.11559092  0.41864825  0.26458375    -0.22300
C28         C  0.09214869  0.39343416  0.26769765    -0.22500
C29         C  0.10994008  0.36284775  0.26644298     0.00500
H30         H  0.10966335  0.44554184  0.26350085     0.14300
H31         H  0.06494633  0.39721186  0.27063800     0.14300
N32         N  0.26532304  0.14125754  0.37082454    -0.02000
C33         C  0.26391294  0.14581709  0.40533206     0.00600
C34         C  0.26522080  0.11458429  0.42132695    -0.22300
C35         C  0.26757745  0.09025212  0.39610660    -0.22500
C36         C  0.26750424  0.10709409  0.36525738     0.00500
H37         H  0.26377574  0.10963381  0.44839978     0.14300
H38         H  0.26943347  0.06311318  0.40005660     0.14300
N39         N  0.36514862  0.24370950  0.13545625    -0.02000
C40         C  0.39897546  0.23552728  0.13788526     0.00600
C41         C  0.41185679  0.22792114  0.10575799    -0.22300
C42         C  0.38565820  0.23198036  0.08296580    -0.22500
C43         C  0.35715390  0.24171061  0.10155559     0.00500
H44         H  0.43757467  0.22015144  0.09920881     0.14300
H45         H  0.38771436  0.22914289  0.05552258     0.14300
N46         N  0.87756272  0.23921938  0.36147598    -0.02000
C47         C  0.87298166  0.23365532  0.39544026     0.00600
C48         C  0.90428138  0.22992495  0.41155084    -0.22300
C49         C  0.92873064  0.23359448  0.38710657    -0.22500
C50         C  0.91188918  0.23929978  0.35650099     0.00500
H51         H  0.90907826  0.22498570  0.43828812     0.14300
H52         H  0.95595611  0.23319099  0.39163569     0.14300
N53         N  0.80791254  0.22869670  0.30203196    -0.25800
N54         N  0.82009123  0.25791635  0.29136236    -0.33700
C55         C  0.84696149  0.26647622  0.31120111     0.02500
C56         C  0.85143663  0.24146110  0.33553730     0.08500
C57         C  0.82637480  0.21791756  0.32898815    -0.04600
H58         H  0.86161067  0.28935854  0.30842390     0.09200
H59         H  0.82202669  0.19457228  0.34253266     0.10400
Cu60       Cu  0.79825728  0.28436053  0.25038695     0.44200
Cu61       Cu  0.76556220  0.20562721  0.28042483     0.42000
Cu62       Cu  0.71678924  0.25155170  0.21709822     0.43900
N63         N  0.77178006  0.30472370  0.20856013    -0.33200
N64         N  0.74267973  0.29274259  0.19630564    -0.27500
C65         C  0.73329921  0.31104161  0.16877352    -0.03600
C66         C  0.75754230  0.33569968  0.16368762     0.08600
C67         C  0.78151538  0.33105910  0.18928792     0.02400
H68         H  0.71037476  0.30689889  0.15395390     0.10100
H69         H  0.80471262  0.34515666  0.19318806     0.09200
N70         N  0.69867836  0.20840353  0.24180845    -0.34700
N71         N  0.71782313  0.19077635  0.26330879    -0.26900
C72         C  0.69942361  0.16546637  0.27621769    -0.02100
C73         C  0.66679632  0.16706667  0.26256092     0.06500
C74         C  0.66713460  0.19498930  0.24098095     0.04600
H75         H  0.70831361  0.14904069  0.29644691     0.09700
H76         H  0.64620731  0.20582885  0.22668854     0.08600
N77         N  0.75814777  0.36070712  0.13700095    -0.02000
C78         C  0.75550081  0.35506515  0.10268401     0.00600
C79         C  0.75783911  0.38542723  0.08536569    -0.22300
C80         C  0.76217939  0.41042796  0.10941817    -0.22500
C81         C  0.76218896  0.39485806  0.14095052     0.00500
H82         H  0.75585277  0.38925223  0.05809045     0.14300
H83         H  0.76529377  0.43717274  0.10426896     0.14300
N84         N  0.63796234  0.14868725  0.27575086    -0.02000
C85         C  0.60574816  0.16085000  0.28158761     0.00600
C86         C  0.58972295  0.14062540  0.30530635    -0.22300
C87         C  0.61211965  0.11493390  0.31350420    -0.22500
C88         C  0.64119764  0.12000049  0.29461038     0.00500
H89         H  0.56335285  0.14201169  0.31320457     0.14300
H90         H  0.60638115  0.09298090  0.32876257     0.14300
N91         N  0.25994161  0.36653968  0.86788581    -0.02000
C92         C  0.26273254  0.36170565  0.90218566     0.00600
C93         C  0.26295107  0.39270683  0.91921610    -0.22300
C94         C  0.25981546  0.41731867  0.89496323    -0.22500
C95         C  0.25792701  0.40086716  0.86351861     0.00500
H96         H  0.26515754  0.39713494  0.94646835     0.14300
H97         H  0.25801909  0.44434875  0.90013972     0.14300
N98         N  0.21287945  0.23911273  0.69558388    -0.25800
N99         N  0.19968358  0.26668960  0.71038163    -0.33700
C100        C  0.17310940  0.27796022  0.69161063     0.02500
C101        C  0.16934437  0.25636171  0.66379566     0.08500
C102        C  0.19491592  0.23199187  0.66698701    -0.04600
H103        H  0.15833674  0.30071241  0.69731607     0.09200
H104        H  0.20007165  0.21060888  0.65012385     0.10400
Cu105      Cu  0.21892932  0.28893035  0.75480651     0.44200
Cu106      Cu  0.25565486  0.21321785  0.71443779     0.42000
Cu107      Cu  0.29418913  0.24990011  0.79118407     0.43900
N108        N  0.24381047  0.30847007  0.79762558    -0.33200
N109        N  0.27168337  0.29444066  0.81080614    -0.27500
C110        C  0.28189222  0.31331978  0.83784160    -0.03600
C111        C  0.25927286  0.34040961  0.84172148     0.08600
C112        C  0.23539398  0.33655700  0.81592138     0.02400
H113        H  0.30428208  0.30790306  0.85314249     0.10100
H114        H  0.21322119  0.35242503  0.81111034     0.09200
N115        N  0.31227750  0.20572458  0.76673326    -0.34700
N116        N  0.29860550  0.19260408  0.73860529    -0.26900
C117        C  0.31686833  0.16484717  0.72896332    -0.02100
C118        C  0.34315169  0.16033537  0.75223423     0.06500
C119        C  0.33944737  0.18654649  0.77588440     0.04600
H120        H  0.31181549  0.14975573  0.70629056     0.09700
H121        H  0.35510166  0.19130617  0.79819410     0.08600
N122        N  0.36968215  0.13455016  0.75139464    -0.02000
C123        C  0.36561410  0.10028445  0.74856031     0.00600
C124        C  0.39704329  0.08392792  0.74995806    -0.22300
C125        C  0.42108034  0.10853687  0.75384844    -0.22500
C126        C  0.40389376  0.13952345  0.75453663     0.00500
H127        H  0.40223776  0.05691563  0.74772453     0.14300
H128        H  0.44819635  0.10389661  0.75639852     0.14300
N129        N  0.14511468  0.26017572  0.63624639    -0.02000
C130        C  0.15204929  0.26150679  0.60222744     0.00600
C131        C  0.12240699  0.26829216  0.58407216    -0.22300
C132        C  0.09660194  0.27123495  0.60738084    -0.22500
C133        C  0.11095629  0.26594406  0.63930600     0.00500
H134        H  0.11941379  0.26996668  0.55665225     0.14300
H135        H  0.07018479  0.27673847  0.60135237     0.14300
N136        N  0.37039529  0.75442585  0.86229343    -0.02000
C137        C  0.40445070  0.75973135  0.85783986     0.00600
C138        C  0.42101022  0.76031877  0.88909968    -0.22300
C139        C  0.39700842  0.75494933  0.91348348    -0.22500
C140        C  0.36601676  0.75142844  0.89680199     0.00500
H141        H  0.44783642  0.76444961  0.89387809     0.14300
H142        H  0.40208903  0.75298557  0.94058105     0.14300
N143        N  0.19979955  0.70637506  0.73265769    -0.25800
N144        N  0.21332397  0.69342289  0.76078847    -0.33700
C145        C  0.19453416  0.66675995  0.77046869     0.02500
C146        C  0.16817298  0.66266237  0.74712960     0.08500
C147        C  0.17229815  0.68815131  0.72348342    -0.04600
H148        H  0.19935531  0.65208512  0.79320058     0.09200
H149        H  0.15700156  0.69289151  0.70097129     0.10400
Cu150      Cu  0.25706203  0.71266292  0.78473505     0.44200
Cu151      Cu  0.21859705  0.74912799  0.70843051     0.42000
Cu152      Cu  0.29429977  0.78676046  0.74520008     0.43900
N153        N  0.30033143  0.73724970  0.80397279    -0.33200
N154        N  0.31350842  0.76446718  0.78975198    -0.27500
C155        C  0.34038230  0.77480698  0.80859054    -0.03600
C156        C  0.34449756  0.75293187  0.83584740     0.08600
C157        C  0.31871802  0.72936287  0.83210363     0.02400
H158        H  0.35513568  0.79709446  0.80318484     0.10100
H159        H  0.31396089  0.70770396  0.84803485     0.09200
N160        N  0.26921650  0.80599530  0.70210348    -0.34700
N161        N  0.24111716  0.79260162  0.68919910    -0.26900
C162        C  0.23043664  0.81133608  0.66249912    -0.02100
C163        C  0.25301712  0.83770958  0.65831083     0.06500
C164        C  0.27740843  0.83346296  0.68369700     0.04600
H165        H  0.20756909  0.80637634  0.64791106     0.09700
H166        H  0.29978779  0.84864729  0.68815413     0.08600
N167        N  0.25212388  0.86342998  0.63221566    -0.02000
C168        C  0.25769089  0.89741979  0.63632783     0.00600
C169        C  0.25652391  0.91332243  0.60494202    -0.22300
C170        C  0.24970661  0.88885582  0.58094350    -0.22500
C171        C  0.24706128  0.85844488  0.59804084     0.00500
H172        H  0.26051054  0.93991694  0.59973102     0.14300
H173        H  0.24636498  0.89303598  0.55384507     0.14300
N174        N  0.14186374  0.63727913  0.74757661    -0.02000
C175        C  0.10754593  0.64242957  0.74386026     0.00600
C176        C  0.09073690  0.61187610  0.74674112    -0.22300
C177        C  0.11498828  0.58731048  0.75232738    -0.22500
C178        C  0.14625329  0.60321012  0.75256630     0.00500
H179        H  0.06366021  0.60753802  0.74423115     0.14300
H180        H  0.11005097  0.56063582  0.75615468     0.14300
N181        N  0.87682481  0.35119648  0.77953698    -0.02000
C182        C  0.90903996  0.33891164  0.78495424     0.00600
C183        C  0.92602486  0.35995810  0.80789794    -0.22300
C184        C  0.90406395  0.38600105  0.81638384    -0.22500
C185        C  0.87433199  0.38036911  0.79838188     0.00500
H186        H  0.95258704  0.35861334  0.81533348     0.14300
H187        H  0.91033883  0.40837892  0.83135903     0.14300
N188        N  0.69026184  0.24834545  0.79247918    -0.25800
N189        N  0.70431907  0.27615180  0.80513062    -0.33700
C190        C  0.68632105  0.28720530  0.83235140     0.02500
C191        C  0.65959053  0.26523658  0.83703017     0.08500
C192        C  0.66274825  0.24079899  0.81137984    -0.04600
H193        H  0.69214230  0.30967765  0.84732578     0.09200
H194        H  0.64695362  0.21883507  0.80714379     0.10400
Cu195      Cu  0.74843670  0.29639645  0.78537591     0.44200
Cu196      Cu  0.71053252  0.22293429  0.74989601     0.42000
Cu197      Cu  0.79289463  0.25273011  0.71601428     0.43900
N198        N  0.79626082  0.30973713  0.76824465    -0.33200
N199        N  0.81376637  0.29338486  0.74420984    -0.27500
C200        C  0.84545316  0.30653344  0.74298323    -0.03600
C201        C  0.84744779  0.33275272  0.76713412     0.08600
C202        C  0.81580470  0.33377228  0.78254229     0.02400
H203        H  0.86520155  0.29713348  0.72615272     0.10100
H204        H  0.80820802  0.34930949  0.80425400     0.09200
N205        N  0.76377316  0.21368704  0.69364699    -0.34700
N206        N  0.73452062  0.20305798  0.70632589    -0.26900
C207        C  0.72253127  0.17773164  0.68640590    -0.02100
C208        C  0.74513242  0.17211502  0.65991369     0.06500
C209        C  0.77097697  0.19534801  0.66507740     0.04600
H210        H  0.69880633  0.16478330  0.69066277     0.09700
H211        H  0.79360350  0.19830638  0.64979229     0.08600
N212        N  0.63381210  0.26798703  0.86311713    -0.02000
C213        C  0.63921100  0.27329317  0.89710262     0.00600
C214        C  0.60847638  0.27770534  0.91381898    -0.22300
C215        C  0.58335711  0.27453158  0.88968233    -0.22500
C216        C  0.59934395  0.26834480  0.85865542     0.00500
H217        H  0.60462589  0.28220942  0.94086721     0.14300
H218        H  0.55629943  0.27512023  0.89485473     0.14300
N219        N  0.74188739  0.14703680  0.63288880    -0.02000
C220        C  0.74281663  0.15225839  0.59848241     0.00600
C221        C  0.73518477  0.12241050  0.58109906    -0.22300
C222        C  0.72953391  0.09823931  0.60509149    -0.22500
C223        C  0.73405212  0.11361753  0.63670641     0.00500
H224        H  0.73506352  0.11803862  0.55375783     0.14300
H225        H  0.72317355  0.07199948  0.59986820     0.14300
N226        N  0.86551133  0.75011163  0.62566282    -0.02000
C227        C  0.89996962  0.74548379  0.62792736     0.00600
C228        C  0.91394056  0.74432061  0.59547566    -0.22300
C229        C  0.88764621  0.74843489  0.57275624    -0.22500
C230        C  0.85804430  0.75177018  0.59168663     0.00500
H231        H  0.94036764  0.74018459  0.58865422     0.14300
H232        H  0.89015654  0.74916276  0.54526205     0.14300
N233        N  0.77066310  0.69370718  0.78496869    -0.25800
N234        N  0.74690077  0.70949325  0.80328503    -0.33700
C235        C  0.74430996  0.69384115  0.83368961     0.02500
C236        C  0.76721587  0.66646882  0.83424147     0.08500
C237        C  0.78334928  0.66741166  0.80281821    -0.04600
H238        H  0.72822996  0.70313221  0.85409958     0.09200
H239        H  0.80515441  0.65224130  0.79484880     0.10400
Cu240      Cu  0.72214670  0.75415551  0.78701204     0.44200
Cu241      Cu  0.79053001  0.71223418  0.73975397     0.42000
Cu242      Cu  0.75663439  0.79173736  0.70939318     0.43900
N243        N  0.70238956  0.79845425  0.76439742    -0.33200
N244        N  0.71497830  0.81201158  0.73636732    -0.27500
C245        C  0.69641092  0.83994513  0.72836295    -0.03600
C246        C  0.67095511  0.84416252  0.75247918     0.08600
C247        C  0.67543128  0.81744636  0.77492406     0.02400
H248        H  0.70061739  0.85530263  0.70609285     0.10100
H249        H  0.66056890  0.81232856  0.79743220     0.09200
N250        N  0.79821630  0.76654301  0.68672381    -0.34700
N251        N  0.81066914  0.73732533  0.69807543    -0.26900
C252        C  0.83718544  0.72739623  0.67840064    -0.02100
C253        C  0.84148853  0.75152344  0.65344768     0.06500
C254        C  0.81637043  0.77595009  0.65929426     0.04600
H255        H  0.85158009  0.70399585  0.68153929     0.09700
H256        H  0.81166493  0.79882885  0.64487027     0.08600
N257        N  0.64450428  0.87012488  0.75331017    -0.02000
C258        C  0.61034489  0.86532997  0.75726917     0.00600
C259        C  0.59313616  0.89624949  0.75699553    -0.22300
C260        C  0.61691715  0.92074869  0.75244024    -0.22500
C261        C  0.64833233  0.90443747  0.75024398     0.00500
H262        H  0.56602861  0.90071487  0.75996161     0.14300
H263        H  0.61152588  0.94766535  0.75005626     0.14300
N264        N  0.78008370  0.64783644  0.86346371    -0.02000
C265        C  0.80200591  0.62085247  0.86091233     0.00600
C266        C  0.81999669  0.61679606  0.89102730    -0.22300
C267        C  0.80805550  0.64116545  0.91332292    -0.22500
C268        C  0.78307266  0.65964679  0.89621794     0.00500
H269        H  0.83712615  0.59602141  0.89744996     0.14300
H270        H  0.81449159  0.64255920  0.94019526     0.14300
N271        N  0.72022187  0.85317989  0.36588213    -0.02000
C272        C  0.71473294  0.84467569  0.39908667     0.00600
C273        C  0.69678596  0.87070931  0.41551613    -0.22300
C274        C  0.69124632  0.89573657  0.39200589    -0.22500
C275        C  0.70594074  0.88452411  0.36191388     0.00500
H276        H  0.69040728  0.87276176  0.44230949     0.14300
H277        H  0.68021556  0.92063771  0.39710302     0.14300
N278        N  0.78926634  0.69149909  0.23284350    -0.25800
N279        N  0.80144752  0.70613401  0.26095517    -0.33700
C280        C  0.83007755  0.68949218  0.27067087     0.02500
C281        C  0.83609855  0.66317604  0.24767064     0.08500
C282        C  0.80984100  0.66511691  0.22400025    -0.04600
H283        H  0.84476404  0.69552559  0.29333445     0.09200
H284        H  0.80599398  0.64888536  0.20188256     0.10400
Cu285      Cu  0.77848713  0.74764176  0.28607970     0.44200
Cu286      Cu  0.74477448  0.70746845  0.20758658     0.42000
Cu287      Cu  0.70496937  0.78286039  0.24304722     0.43900
N288        N  0.75019255  0.78882338  0.30561537    -0.33200
N289        N  0.72362955  0.80183103  0.28915267    -0.27500
C290        C  0.71006322  0.82739907  0.30789892    -0.03600
C291        C  0.72880959  0.83064216  0.33772792     0.08600
C292        C  0.75416694  0.80577437  0.33557359     0.02400
H293        H  0.68738010  0.84169056  0.30094135     0.10100
H294        H  0.77412453  0.80036803  0.35386905     0.09200
N295        N  0.68668802  0.75796712  0.19971630    -0.34700
N296        N  0.70061698  0.72977165  0.18698098    -0.26900
C297        C  0.68147529  0.71891896  0.16039045    -0.02100
C298        C  0.65442837  0.74157442  0.15624334     0.06500
C299        C  0.65854001  0.76601063  0.18156564     0.04600
H300        H  0.68626768  0.69574267  0.14596784     0.09700
H301        H  0.64250818  0.78800615  0.18662870     0.08600
N302        N  0.86291512  0.63779188  0.24962196    -0.02000
C303        C  0.89682357  0.64346014  0.25375189     0.00600
C304        C  0.91444638  0.61295741  0.25681265    -0.22300
C305        C  0.89098152  0.58771585  0.25407697    -0.22500
C306        C  0.85945329  0.60337230  0.24961784     0.00500
H307        H  0.94159689  0.60932545  0.26053667     0.14300
H308        H  0.89675594  0.56075459  0.25420501     0.14300
N309        N  0.62603154  0.73811594  0.13289262    -0.02000
C310        C  0.59224145  0.73939513  0.14090285     0.00600
C311        C  0.57279855  0.73198468  0.11228819    -0.22300
C312        C  0.59494770  0.72596093  0.08596055    -0.22500
C313        C  0.62760696  0.73011543  0.09893054     0.00500
H314        H  0.54527634  0.73185347  0.11035985     0.14300
H315        H  0.58748546  0.71929692  0.06015157     0.14300
N316        N  0.36259470  0.86754666  0.24634579    -0.02000
C317        C  0.39687677  0.86162322  0.24433981     0.00600
C318        C  0.41405061  0.89212134  0.24399609    -0.22300
C319        C  0.39000304  0.91748790  0.24614676    -0.22500
C320        C  0.35854660  0.90203044  0.24759207     0.00500
H321        H  0.44125469  0.89577528  0.24204956     0.14300
H322        H  0.39523755  0.94440255  0.24749722     0.14300
N323        N  0.19008182  0.74228977  0.28767670    -0.25800
N324        N  0.20255615  0.77103852  0.30015640    -0.33700
C325        C  0.18273400  0.78210012  0.32614190     0.02500
C326        C  0.15666782  0.75920852  0.33024434     0.08500
C327        C  0.16194756  0.73430365  0.30546089    -0.04600
H328        H  0.18662764  0.80543604  0.34042403     0.09200
H329        H  0.14682749  0.71193665  0.30080802     0.10400
Cu330      Cu  0.24602565  0.79458185  0.28146630     0.44200
Cu331      Cu  0.21163447  0.71539643  0.24641650     0.42000
Cu332      Cu  0.28772719  0.75246473  0.21058557     0.43900
N333        N  0.29032685  0.81275143  0.25895456    -0.33200
N334        N  0.30519759  0.79747154  0.23255623    -0.27500
C335        C  0.33304197  0.81498781  0.22380788    -0.03600
C336        C  0.33602778  0.84243475  0.24601214     0.08600
C337        C  0.30853972  0.84030645  0.26799351     0.02400
H338        H  0.34951129  0.80832133  0.20263756     0.10100
H339        H  0.30266503  0.85673783  0.28954403     0.09200
N340        N  0.26643992  0.70746944  0.19251618    -0.34700
N341        N  0.23839725  0.69407897  0.20502277    -0.26900
C342        C  0.23107296  0.66564470  0.18696784    -0.02100
C343        C  0.25587077  0.66098994  0.16214650     0.06500
C344        C  0.27791354  0.68784870  0.16647652     0.04600
H345        H  0.20899439  0.65012777  0.19122111     0.09700
H346        H  0.30087089  0.69261876  0.15223144     0.08600
N347        N  0.12880234  0.76218039  0.35410064    -0.02000
C348        C  0.09486638  0.76215129  0.34665394     0.00600
C349        C  0.07609129  0.76867047  0.37593549    -0.22300
C350        C  0.09888504  0.77275640  0.40211256    -0.22500
C351        C  0.13110571  0.76841449  0.38832304     0.00500
H352        H  0.04863275  0.76932366  0.37842240     0.14300
H353        H  0.09240918  0.77832888  0.42844545     0.14300
N354        N  0.25857647  0.63380466  0.13712627    -0.02000
C355        C  0.25674520  0.59973060  0.14298717     0.00600
C356        C  0.26197485  0.58175045  0.11278542    -0.22300
C357        C  0.26723200  0.60507362  0.08778802    -0.22500
C358        C  0.26486101  0.63694578  0.10302022     0.00500
H359        H  0.26137494  0.55450546  0.10885921     0.14300
H360        H  0.27255918  0.59911948  0.06127597     0.14300
C361        C  0.47201160  0.79796132  0.23997390     0.20100
C362        C  0.50701512  0.80363306  0.24512040    -0.17900
C363        C  0.53164434  0.78341976  0.22856546    -0.10200
C364        C  0.52169965  0.75680977  0.20657866     0.22400
C365        C  0.48685344  0.74911684  0.20413349    -0.19600
C366        C  0.46221852  0.76946851  0.22048791    -0.10400
C367        C  0.54565830  0.73881375  0.18285032    -0.14600
C368        C  0.57676403  0.75010361  0.17404906    -0.28400
C369        C  0.44741988  0.82460107  0.25215068    -0.02700
C370        C  0.41471357  0.82804087  0.24148895    -0.39200
H371        H  0.51540176  0.82504715  0.26049110     0.13500
H372        H  0.55817589  0.78962827  0.23216654     0.13200
H373        H  0.47842020  0.72839952  0.18784025     0.12600
H374        H  0.43569444  0.76342511  0.21658795     0.12900
H375        H  0.53515262  0.71776834  0.16817058     0.15600
H376        H  0.58840379  0.77060568  0.18820271     0.14400
H377        H  0.45822233  0.84508597  0.26739231     0.12100
H378        H  0.40247680  0.80781786  0.22742897     0.14100
C379        C  0.02220600  0.74574733  0.28358168     0.20100
C380        C  0.98757452  0.75533631  0.28555880    -0.17900
C381        C  0.96229578  0.73519097  0.27065781    -0.10200
C382        C  0.97125865  0.70503421  0.25319363     0.22400
C383        C  0.00599717  0.69710733  0.24858928    -0.19600
C384        C  0.03124671  0.71707746  0.26369098    -0.10400
C385        C  0.94600513  0.67913357  0.24253755    -0.14600
C386        C  0.91402058  0.67683122  0.25487204    -0.28400
C387        C  0.04674849  0.76369255  0.30636304    -0.02700
C388        C  0.07877164  0.75280528  0.31350088    -0.39200
H389        H  0.97981800  0.77751341  0.30038939     0.13500
H390        H  0.93592121  0.74274437  0.27400381     0.13200
H391        H  0.01367438  0.67418941  0.23489597     0.12600
H392        H  0.05748527  0.70895138  0.26079989     0.12900
H393        H  0.95595995  0.65787478  0.22745554     0.15600
H394        H  0.90227684  0.69748568  0.26923717     0.14400
H395        H  0.03613619  0.78424398  0.32195287     0.12100
H396        H  0.09117544  0.73352272  0.29794242     0.14100
C397        C  0.73734437  0.70587118  0.97036402     0.20100
C398        C  0.74426420  0.70351526  0.00553555    -0.17900
C399        C  0.71910557  0.71131052  0.02976374    -0.10200
C400        C  0.68646952  0.72218951  0.01923356     0.22400
C401        C  0.68003571  0.72570072  0.98402393    -0.19600
C402        C  0.70509328  0.71764511  0.95983912    -0.10400
C403        C  0.65761967  0.72825774  0.04330052    -0.14600
C404        C  0.65919291  0.72724993  0.07784209    -0.28400
C405        C  0.76404789  0.69447679  0.94577984    -0.02700
C406        C  0.75729606  0.68087808  0.91467153    -0.39200
H407        H  0.76896257  0.69449477  0.01431391     0.13500
H408        H  0.72526957  0.70794412  0.05644364     0.13200
H409        H  0.65520916  0.73417368  0.97507226     0.12600
H410        H  0.69905822  0.72057134  0.93302935     0.12900
H411        H  0.63319337  0.73346547  0.03127888     0.15600
H412        H  0.68347531  0.72441690  0.09070589     0.14400
H413        H  0.79005146  0.69359712  0.95537518     0.12100
H414        H  0.73130471  0.68031337  0.90535246     0.14100
C415        C  0.74311939  0.78736118  0.47354350     0.20100
C416        C  0.73895912  0.79274492  0.50889854    -0.17900
C417        C  0.76187306  0.77843431  0.53242888    -0.10200
C418        C  0.78931185  0.75802742  0.52098410     0.22400
C419        C  0.79180394  0.75057398  0.48583103    -0.19600
C420        C  0.76909998  0.76506667  0.46234674    -0.10400
C421        C  0.81760055  0.74615003  0.54363099    -0.14600
C422        C  0.82375584  0.75718151  0.57590788    -0.28400
C423        C  0.72142168  0.80739800  0.44954229    -0.02700
C424        C  0.73079873  0.81556653  0.41746066    -0.39200
H425        H  0.71881584  0.80941715  0.51830709     0.13500
H426        H  0.75841996  0.78425026  0.55924692     0.13200
H427        H  0.81235949  0.73452661  0.47623466     0.12600
H428        H  0.77250427  0.75922589  0.43550940     0.12900
H429        H  0.83655214  0.72964267  0.53158741     0.15600
H430        H  0.80513177  0.77254681  0.58953361     0.14400
H431        H  0.69876146  0.81931209  0.46035894     0.12100
H432        H  0.75343923  0.80413724  0.40654206     0.14100
C433        C  0.70330916  0.98267282  0.73497570     0.20100
C434        C  0.69710415  0.01710545  0.74348884    -0.17900
C435        C  0.71054947  0.04327024  0.72385067    -0.10200
C436        C  0.73090488  0.03551761  0.69529759     0.22400
C437        C  0.73920225  0.00119512  0.68841278    -0.19600
C438        C  0.72554025  0.97505725  0.70783927    -0.10400
C439        C  0.74089635  0.06119535  0.66957153    -0.14600
C440        C  0.73160062  0.09446004  0.66923883    -0.28400
C441        C  0.68242737  0.95644070  0.75212668    -0.02700
C442        C  0.68009850  0.92329271  0.74264600    -0.39200
H443        H  0.68017334  0.02385710  0.76434994     0.13500
H444        H  0.70366473  0.06922504  0.73035017     0.13200
H445        H  0.75499619  0.99436931  0.66669399     0.12600
H446        H  0.73140546  0.94910347  0.70044373     0.12900
H447        H  0.75433594  0.05107981  0.64737410     0.15600
H448        H  0.71992113  0.10662372  0.69125471     0.14400
H449        H  0.66421718  0.96618418  0.77078249     0.12100
H450        H  0.69855567  0.91165587  0.72561005     0.14100
C451        C  0.82272497  0.53615049  0.81805070     0.20100
C452        C  0.84803778  0.52120507  0.79739357    -0.17900
C453        C  0.85100307  0.48580769  0.79440877    -0.10200
C454        C  0.82942920  0.46471966  0.81304431     0.22400
C455        C  0.80312646  0.47958325  0.83248230    -0.19600
C456        C  0.79936024  0.51503279  0.83446184    -0.10400
C457        C  0.83940227  0.42875529  0.81843951    -0.14600
C458        C  0.84887046  0.40788961  0.79268205    -0.28400
C459        C  0.82597685  0.57225818  0.82870043    -0.02700
C460        C  0.79910967  0.59279776  0.83543868    -0.39200
H461        H  0.86678831  0.53691290  0.78518474     0.13500
H462        H  0.87211467  0.47496737  0.78004102     0.13200
H463        H  0.78673554  0.46382119  0.84765469     0.12600
H464        H  0.78020205  0.52584811  0.85135581     0.12900
H465        H  0.84432442  0.42113231  0.84462401     0.15600
H466        H  0.84268020  0.41445160  0.76648393     0.14400
H467        H  0.85137011  0.58063969  0.83576992     0.12100
H468        H  0.77379443  0.58579321  0.82678585     0.14100
C469        C  0.03087588  0.70177766  0.72619761     0.20100
C470        C  0.99604908  0.69725000  0.73312370    -0.17900
C471        C  0.97071570  0.71284851  0.71318626    -0.10200
C472        C  0.97965077  0.73378210  0.68588411     0.22400
C473        C  0.01443496  0.74032575  0.68060127    -0.19600
C474        C  0.03978730  0.72452900  0.70039676    -0.10400
C475        C  0.95455345  0.74605383  0.65984075    -0.14600
C476        C  0.92052053  0.74053655  0.65974504    -0.28400
C477        C  0.05606464  0.67902364  0.74369284    -0.02700
C478        C  0.08928720  0.67474347  0.73518892    -0.39200
H479        H  0.98829533  0.67999637  0.75292493     0.13500
H480        H  0.94443003  0.70704107  0.71840895     0.13200
H481        H  0.02218889  0.75651757  0.65990710     0.12600
H482        H  0.06612679  0.72928120  0.69436168     0.12900
H483        H  0.96547831  0.75837410  0.63783885     0.15600
H484        H  0.90809240  0.73048065  0.68198302     0.14400
H485        H  0.04542414  0.66150258  0.76193612     0.12100
H486        H  0.10155072  0.69236430  0.71842749     0.14100
C487        C  0.18832533  0.77257715  0.46864233     0.20100
C488        C  0.18183519  0.76535560  0.50312804    -0.17900
C489        C  0.20202462  0.77904649  0.52931162    -0.10200
C490        C  0.22937907  0.80027240  0.52147494     0.22400
C491        C  0.23737864  0.80533021  0.48692658    -0.19600
C492        C  0.21707986  0.79184781  0.46077904    -0.10400
C493        C  0.24769737  0.82109717  0.54755263    -0.14600
C494        C  0.23753180  0.82640019  0.58013179    -0.28400
C495        C  0.16215692  0.76295841  0.44274008    -0.02700
C496        C  0.16286621  0.77038482  0.40909596    -0.39200
H497        H  0.15998337  0.75037460  0.51000460     0.13500
H498        H  0.19521374  0.77388395  0.55543806     0.13200
H499        H  0.25838338  0.82145707  0.48004996     0.12600
H500        H  0.22329005  0.79802428  0.43474660     0.12900
H501        H  0.26782622  0.83709652  0.53793502     0.15600
H502        H  0.21826095  0.81078150  0.59139524     0.14400
H503        H  0.13931527  0.75141542  0.45274145     0.12100
H504        H  0.18570383  0.77973142  0.39727695     0.14100
C505        C  0.27569353  0.69554754  0.02499836     0.20100
C506        C  0.26822625  0.69069993  0.99006249    -0.17900
C507        C  0.28432224  0.70978954  0.96495366    -0.10200
C508        C  0.30827771  0.73450635  0.97424249     0.22400
C509        C  0.31378809  0.74111301  0.00928336    -0.19600
C510        C  0.29788432  0.72184397  0.03439022    -0.10400
C511        C  0.33101484  0.75125731  0.94911874    -0.14600
C512        C  0.33410812  0.74305369  0.91549646    -0.28400
C513        C  0.26316784  0.66979415  0.04958434    -0.02700
C514        C  0.26952714  0.66906681  0.08362655    -0.39200
H515        H  0.25107029  0.67078884  0.98195684     0.13500
H516        H  0.27879921  0.70404476  0.93846423     0.13200
H517        H  0.33197433  0.76010652  0.01734686     0.12600
H518        H  0.30442945  0.72668989  0.06082394     0.12900
H519        H  0.34924027  0.76889913  0.96005951     0.15600
H520        H  0.31562385  0.72700538  0.90303851     0.14400
H521        H  0.25011725  0.64827310  0.03815228     0.12100
H522        H  0.28028311  0.69084148  0.09656587     0.14100
C523        C  0.53399749  0.80580230  0.76494788     0.20100
C524        C  0.49937323  0.81238385  0.75763214    -0.17900
C525        C  0.47351909  0.79509646  0.77448944    -0.10200
C526        C  0.48176294  0.77041802  0.79895233     0.22400
C527        C  0.51637872  0.76197444  0.80422715    -0.19600
C528        C  0.54223580  0.77947674  0.78759074    -0.10400
C529        C  0.45621090  0.75589188  0.82267640    -0.14600
C530        C  0.42296109  0.76528198  0.82518376    -0.28400
C531        C  0.55969957  0.82964185  0.75124629    -0.02700
C532        C  0.59235024  0.83262001  0.76214803    -0.39200
H533        H  0.49217070  0.83236921  0.74010230     0.13500
H534        H  0.44737062  0.80229532  0.76922437     0.13200
H535        H  0.52360094  0.74289208  0.82273124     0.12600
H536        H  0.56842849  0.77304347  0.79358578     0.12900
H537        H  0.46654603  0.73923085  0.84222785     0.15600
H538        H  0.41086799  0.78034480  0.80558164     0.14400
H539        H  0.54974746  0.84899674  0.73415070     0.12100
H540        H  0.60410768  0.81347619  0.77806596     0.14100
C541        C  0.03295954  0.26633448  0.69987463     0.20100
C542        C  0.99819861  0.26001298  0.69391037    -0.17900
C543        C  0.97348336  0.26953521  0.71793175    -0.10200
C544        C  0.98305277  0.28550710  0.74867007     0.22400
C545        C  0.01790443  0.28988101  0.75566527    -0.19600
C546        C  0.04265272  0.28067226  0.73148680    -0.10400
C547        C  0.95771241  0.30005092  0.77305994    -0.14600
C548        C  0.92722769  0.31321334  0.76337267    -0.28400
C549        C  0.05713881  0.26034933  0.67110355    -0.02700
C550        C  0.09099753  0.26632444  0.67164072    -0.39200
H551        H  0.98992561  0.24871120  0.66995525     0.13500
H552        H  0.94695463  0.26489734  0.71209327     0.13200
H553        H  0.02594575  0.30198861  0.77930599     0.12600
H554        H  0.06898148  0.28598649  0.73738086     0.12900
H555        H  0.96656779  0.30445877  0.79903507     0.15600
H556        H  0.91870745  0.31000509  0.73725420     0.14400
H557        H  0.04569305  0.25202689  0.64718255     0.12100
H558        H  0.10387955  0.27240745  0.69534041     0.14100
C559        C  0.30744435  0.02363504  0.73607277     0.20100
C560        C  0.31659278  0.98904550  0.73842476    -0.17900
C561        C  0.29954007  0.96429092  0.71923756    -0.10200
C562        C  0.27244546  0.97357218  0.69752646     0.22400
C563        C  0.26168592  0.00785031  0.69713753    -0.19600
C564        C  0.27893894  0.03267028  0.71615438    -0.10400
C565        C  0.25797962  0.94985593  0.67146638    -0.14600
C566        C  0.26476806  0.91611019  0.66888869    -0.28400
C567        C  0.33068667  0.04899618  0.75194074    -0.02700
C568        C  0.33324433  0.08179551  0.74240440    -0.39200
H569        H  0.33841434  0.98128676  0.75364539     0.13500
H570        H  0.30900808  0.93840331  0.72020441     0.13200
H571        H  0.24078201  0.01576558  0.68076282     0.12600
H572        H  0.27050793  0.05885261  0.71423884     0.12900
H573        H  0.24278887  0.96166245  0.65148094     0.15600
H574        H  0.27732540  0.90291581  0.68955023     0.14400
H575        H  0.35017853  0.03876839  0.76890142     0.12100
H576        H  0.31404161  0.09344260  0.72629458     0.14100
C577        C  0.52320412  0.24753148  0.80043829     0.20100
C578        C  0.48823641  0.24917053  0.80806230    -0.17900
C579        C  0.46517656  0.22755320  0.79170434    -0.10200
C580        C  0.47658903  0.20395374  0.76689838     0.22400
C581        C  0.51112659  0.20414669  0.75743699    -0.19600
C582        C  0.53422836  0.22568594  0.77391850    -0.10400
C583        C  0.45497758  0.17573840  0.75390833    -0.14600
C584        C  0.42119850  0.17273053  0.75953701    -0.28400
C585        C  0.54704300  0.26626450  0.82335056    -0.02700
C586        C  0.58058251  0.25881526  0.82690539    -0.39200
H587        H  0.47893718  0.26584724  0.82827831     0.13500
H588        H  0.43899545  0.22825689  0.80013944     0.13200
H589        H  0.52064690  0.18639295  0.73826935     0.12600
H590        H  0.56069775  0.22418935  0.76647539     0.12900
H591        H  0.46842469  0.15498060  0.74109861     0.15600
H592        H  0.40669049  0.19409099  0.76950381     0.14400
H593        H  0.53536336  0.28395295  0.84144684     0.12100
H594        H  0.59317793  0.24201859  0.80886763     0.14100
C595        C  0.24416707  0.47672956  0.80304834     0.20100
C596        C  0.25063420  0.51159574  0.80769596    -0.17900
C597        C  0.23225082  0.53624734  0.78951027    -0.10200
C598        C  0.20696919  0.52652025  0.76592991     0.22400
C599        C  0.20257824  0.49162055  0.75920450    -0.19600
C600        C  0.22079722  0.46697165  0.77755503    -0.10400
C601        C  0.18162184  0.55090161  0.75111594    -0.14600
C602        C  0.17897774  0.58448402  0.75873127    -0.28400
C603        C  0.25918253  0.45250753  0.82823942    -0.02700
C604        C  0.25152430  0.41918719  0.83089826    -0.39200
H605        H  0.26869562  0.51997434  0.82693827     0.13500
H606        H  0.23696592  0.56267275  0.79534397     0.13200
H607        H  0.18350311  0.48326551  0.74097118     0.12600
H608        H  0.21519951  0.44056187  0.77260389     0.12900
H609        H  0.16153901  0.53959758  0.73572202     0.15600
H610        H  0.19923591  0.59731576  0.77217049     0.14400
H611        H  0.27483574  0.46385175  0.84816299     0.12100
H612        H  0.23770151  0.40630039  0.81078550     0.14100
C613        C  0.68814299  0.03575333  0.30732378     0.20100
C614        C  0.71100027  0.02096596  0.33064856    -0.17900
C615        C  0.71473524  0.98557898  0.33233105    -0.10200
C616        C  0.69471782  0.96433466  0.31146484     0.22400
C617        C  0.67376342  0.97913739  0.28643011    -0.19600
C618        C  0.67092967  0.01457870  0.28394406    -0.10400
C619        C  0.68866722  0.92878117  0.32183837    -0.14600
C620        C  0.71343344  0.90825385  0.33393103    -0.28400
C621        C  0.67617390  0.07125873  0.31329119    -0.02700
C622        C  0.66644537  0.09225733  0.28810969    -0.39200
H623        H  0.72410755  0.03671864  0.34925287     0.13500
H624        H  0.73048859  0.97491968  0.35242508     0.13200
H625        H  0.65766591  0.96331167  0.27049816     0.12600
H626        H  0.65257039  0.02522836  0.26617148     0.12900
H627        H  0.66225198  0.92181277  0.32571079     0.15600
H628        H  0.73998627  0.91401002  0.32924069     0.14400
H629        H  0.67107043  0.07874943  0.33961724     0.12100
H630        H  0.67308596  0.08628907  0.26179442     0.14100
C631        C  0.70118014  0.26851132  0.97300906     0.20100
C632        C  0.69404550  0.26157463  0.00739255    -0.17900
C633        C  0.71404499  0.27506345  0.03376880    -0.10200
C634        C  0.74197679  0.29562629  0.02623527     0.22400
C635        C  0.75115986  0.29955855  0.99178617    -0.19600
C636        C  0.73097101  0.28628103  0.96538488    -0.10400
C637        C  0.75893683  0.31759768  0.05229745    -0.14600
C638        C  0.74843043  0.32232890  0.08489365    -0.28400
C639        C  0.67460714  0.26023138  0.94707780    -0.02700
C640        C  0.67254771  0.27313806  0.91528128    -0.39200
H641        H  0.67153011  0.24748747  0.01405660     0.13500
H642        H  0.70628643  0.27069819  0.05977334     0.13200
H643        H  0.77283677  0.31488878  0.98514614     0.12600
H644        H  0.73803633  0.29138990  0.93930848     0.12900
H645        H  0.77792784  0.33484308  0.04257166     0.15600
H646        H  0.73095591  0.30504178  0.09667516     0.14400
H647        H  0.65291108  0.24612036  0.95629042     0.12100
H648        H  0.69365373  0.28642356  0.90412724     0.14100
C649        C  0.80241591  0.52567343  0.23635763     0.20100
C650        C  0.80681536  0.49147013  0.24578271    -0.17900
C651        C  0.79064606  0.46535285  0.22763900    -0.10200
C652        C  0.76947168  0.47299719  0.19966134     0.22400
C653        C  0.76317698  0.50730379  0.19181681    -0.19600
C654        C  0.77949779  0.53336831  0.20976196    -0.10400
C655        C  0.75613076  0.44676737  0.17562032    -0.14600
C656        C  0.76699612  0.41407641  0.17348225    -0.28400
C657        C  0.82544115  0.55132649  0.25207335    -0.02700
C658        C  0.82783732  0.58408838  0.24245581    -0.39200
H659        H  0.82417991  0.48472466  0.26628229     0.13500
H660        H  0.79574891  0.43938828  0.23500756     0.13200
H661        H  0.74685027  0.51400357  0.17046754     0.12600
H662        H  0.77497774  0.55915826  0.20158472     0.12900
H663        H  0.73941893  0.45612806  0.15549208     0.15600
H664        H  0.78261771  0.40286323  0.19331241     0.14400
H665        H  0.84422612  0.54153097  0.27003235     0.12100
H666        H  0.80867943  0.59554615  0.22626103     0.14100
C667        C  0.76535960  0.20658241  0.52177380     0.20100
C668        C  0.76128476  0.19738790  0.48713992    -0.17900
C669        C  0.78349133  0.20928840  0.46219875    -0.10200
C670        C  0.81010803  0.23118908  0.47132749     0.22400
C671        C  0.81261888  0.24228130  0.50558329    -0.19600
C672        C  0.79058937  0.23012198  0.53058202    -0.10400
C673        C  0.83828688  0.23965914  0.44756858    -0.14600
C674        C  0.83986817  0.23176196  0.41384167    -0.28400
C675        C  0.74498122  0.18820548  0.54756492    -0.02700
C676        C  0.75444507  0.18317269  0.58046639    -0.39200
H677        H  0.74199712  0.17931259  0.47955191     0.13500
H678        H  0.78062741  0.19985376  0.43632185     0.13200
H679        H  0.83274622  0.25932469  0.51338731     0.12600
H680        H  0.79409710  0.23845880  0.55676683     0.12900
H681        H  0.86038507  0.25136088  0.45940089     0.15600
H682        H  0.81772240  0.22251627  0.40022981     0.14400
H683        H  0.72400278  0.17336066  0.53741063     0.12100
H684        H  0.77466241  0.19785778  0.59201277     0.14100
C685        C  0.29422834  0.25831697  0.02840300     0.20100
C686        C  0.27281499  0.28585198  0.03743989    -0.17900
C687        C  0.25794697  0.30607312  0.01211308    -0.10200
C688        C  0.26424389  0.29950611  0.97728658     0.22400
C689        C  0.28318331  0.27023540  0.96820912    -0.19600
C690        C  0.29785032  0.24984554  0.99355772    -0.10400
C691        C  0.25348892  0.32584720  0.95227257    -0.14600
C692        C  0.26550220  0.32861962  0.92011874    -0.28400
C693        C  0.31633995  0.24015763  0.05352274    -0.02700
C694        C  0.32448583  0.25216460  0.08500394    -0.39200
H695        H  0.26836729  0.29273354  0.06386652     0.13500
H696        H  0.24295310  0.32812580  0.01990733     0.13200
H697        H  0.28786667  0.26356688  0.94176999     0.12600
H698        H  0.31376731  0.22843766  0.98578575     0.12900
H699        H  0.23787688  0.34661823  0.96239492     0.15600
H700        H  0.28022766  0.30826142  0.90839535     0.14400
H701        H  0.33069679  0.21841596  0.04361767     0.12100
H702        H  0.31044661  0.27325327  0.09618352     0.14100
C703        C  0.53044317  0.21245200  0.24388761     0.20100
C704        C  0.49571897  0.21279918  0.25282690    -0.17900
C705        C  0.47048543  0.22224845  0.22912489    -0.10200
C706        C  0.47959539  0.23195347  0.19594749     0.22400
C707        C  0.51443281  0.23353099  0.18783112    -0.19600
C708        C  0.53954511  0.22396184  0.21139283    -0.10400
C709        C  0.45445635  0.23826148  0.16793491    -0.14600
C710        C  0.42020172  0.23508078  0.16971742    -0.28400
C711        C  0.55589838  0.19809232  0.26839818    -0.02700
C712        C  0.58639770  0.18453300  0.25907594    -0.39200
H713        H  0.48795641  0.20440078  0.27784285     0.13500
H714        H  0.44409996  0.22093995  0.23672296     0.13200
H715        H  0.52235187  0.24126313  0.16263589     0.12600
H716        H  0.56594058  0.22525385  0.20376462     0.07300
H717        H  0.46545143  0.24434616  0.14339518     0.15600
H718        H  0.40798503  0.23124751  0.19402541     0.14400
H719        H  0.54752484  0.19519863  0.29459570     0.12100
H720        H  0.59455906  0.18598447  0.23282500     0.14100
C721        C  0.27012964  0.03249139  0.30072432     0.20100
C722        C  0.26110381  0.99828285  0.30462209    -0.17900
C723        C  0.27629559  0.97256870  0.28471695    -0.10200
C724        C  0.30089755  0.98057017  0.26018474     0.22400
C725        C  0.30737343  0.01505272  0.25398938    -0.19600
C726        C  0.29230655  0.04078077  0.27404636    -0.10400
C727        C  0.32380659  0.95453751  0.24398448    -0.14600
C728        C  0.32626637  0.92156882  0.25323773    -0.28400
C729        C  0.25909646  0.05725156  0.32772710    -0.02700
C730        C  0.27057716  0.08929495  0.33163108    -0.39200
H731        H  0.24369854  0.99110369  0.32462093     0.13500
H732        H  0.26974115  0.94657699  0.28995303     0.13200
H733        H  0.32586704  0.02209953  0.23494683     0.12600
H734        H  0.29948676  0.06673597  0.26946272     0.12900
H735        H  0.34308634  0.96422023  0.22693071     0.15600
H736        H  0.30690555  0.91036262  0.26881951     0.14400
H737        H  0.24343228  0.04710249  0.34794039     0.12100
H738        H  0.28490490  0.10123464  0.31167697     0.14100
C739        C  0.21645643  0.24863439  0.52968373     0.20100
C740        C  0.21106919  0.25326802  0.49451837    -0.17900
C741        C  0.22871570  0.23345843  0.47037795    -0.10200
C742        C  0.25257212  0.20868847  0.48096475     0.22400
C743        C  0.26028016  0.20641357  0.51601197    -0.19600
C744        C  0.24244513  0.22610291  0.54017697    -0.10400
C745        C  0.26624778  0.18164688  0.45760881    -0.14600
C746        C  0.25912400  0.17878139  0.42390047    -0.28400
C747        C  0.19180496  0.26495096  0.55379005    -0.02700
C748        C  0.18527023  0.25363325  0.58551968    -0.39200
H749        H  0.19147871  0.27075664  0.48564771     0.13500
H750        H  0.22198493  0.23653865  0.44380803     0.13200
H751        H  0.27886545  0.18791413  0.52495901     0.12600
H752        H  0.24828004  0.22256774  0.56692573     0.12900
H753        H  0.28024963  0.16105442  0.46975250     0.15600
H754        H  0.24746850  0.19971851  0.41043841     0.14400
H755        H  0.17476791  0.28405253  0.54304065     0.12100
H756        H  0.20195771  0.23509903  0.59728353     0.14100
C757        C  0.03724412  0.29787683  0.26879773     0.20100
C758        C  0.00273039  0.30064181  0.25915725    -0.17900
C759        C  0.97815363  0.27979462  0.27357706    -0.10200
C760        C  0.98766805  0.25551604  0.29799219     0.22400
C761        C  0.02253570  0.25058847  0.30516387    -0.19600
C762        C  0.04709522  0.27158177  0.29092732    -0.10400
C763        C  0.96259449  0.23769770  0.31965700    -0.14600
C764        C  0.92992067  0.24793575  0.32446710    -0.28400
C765        C  0.06055893  0.32553345  0.25851474    -0.02700
C766        C  0.09315409  0.32926779  0.26910132    -0.39200
H767        H  0.99438416  0.32032467  0.24176753     0.13500
H768        H  0.95177584  0.28379153  0.26644513     0.13200
H769        H  0.03070283  0.23177987  0.32357979     0.12600
H770        H  0.07331202  0.26799537  0.29876068     0.12900
H771        H  0.97303994  0.21839369  0.33650873     0.15600
H772        H  0.91807110  0.26639309  0.30781411     0.14400
H773        H  0.04895890  0.34602072  0.24393536     0.12100
H774        H  0.10655033  0.30893609  0.28197984     0.14100
C775        C  0.20549362  0.47944495  0.24621686     0.20100
C776        C  0.19878428  0.51454155  0.24975831    -0.17900
C777        C  0.21641435  0.53821608  0.23034478    -0.10200
C778        C  0.24154344  0.52726746  0.20703716     0.22400
C779        C  0.25012165  0.49242900  0.20560541    -0.19600
C780        C  0.23236867  0.46875590  0.22485962    -0.10400
C781        C  0.25679653  0.54994007  0.18103743    -0.14600
C782        C  0.24838253  0.58298337  0.17590685    -0.28400
C783        C  0.18128601  0.45544283  0.26217619    -0.02700
C784        C  0.17918569  0.42183845  0.25478589    -0.39200
H785        H  0.17845514  0.52364866  0.26627024     0.13500
H786        H  0.20910880  0.56469257  0.23278232     0.13200
H787        H  0.26960614  0.48317486  0.18817730     0.12600
H788        H  0.23910780  0.44219385  0.22179696     0.12900
H789        H  0.27392708  0.53755582  0.16292824     0.15600
H790        H  0.23303791  0.59679446  0.19432101     0.14400
H791        H  0.16146994  0.46703005  0.27789565     0.12100
H792        H  0.19910639  0.40896307  0.24055010     0.14100
loop_ 
_geom_bond_atom_site_label_1 
_geom_bond_atom_site_label_2 
_geom_bond_distance 
_geom_bond_site_symmetry_2 
_ccdc_geom_bond_type 
N1            N2   1.324       .  A
N1            C5   1.344       .  A
N1           Cu9   2.075       .  S
N2            C3   1.351       .  A
N2           Cu8   2.098       .  S
C3            C4   1.388       .  A
C3            H6   1.080       .  S
C4            C5   1.381       .  A
C4           N39   1.444       .  S
C5            H7   1.082       .  S
Cu8          N11   2.098       .  S
Cu9          N19   2.075       .  S
Cu10         N12   2.085       .  S
Cu10         N18   2.084       .  S
N11          N12   1.326       .  A
N11          C15   1.350       .  A
N12          C13   1.347       .  A
C13          C14   1.382       .  A
C13          H16   1.081       .  S
C14          C15   1.385       .  A
C14          N25   1.443       .  S
C15          H17   1.081       .  S
N18          N19   1.323       .  A
N18          C22   1.347       .  A
N19          C20   1.347       .  A
C20          C21   1.382       .  A
C20          H23   1.081       .  S
C21          C22   1.384       .  A
C21          N32   1.441       .  S
C22          H24   1.081       .  S
N25          C29   1.362       .  A
N25          C26   1.363       .  A
C26          C27   1.386       .  A
C26         C784   1.491       .  S
C27          C28   1.369       .  A
C27          H30   1.082       .  S
C28          C29   1.384       .  A
C28          H31   1.082       .  S
C29         C766   1.489       .  S
N32          C36   1.361       .  A
N32          C33   1.362       .  A
C33          C34   1.386       .  A
C33         C746   1.489       .  S
C34          C35   1.370       .  A
C34          H37   1.082       .  S
C35          C36   1.384       .  A
C35          H38   1.082       .  S
C36         C730   1.488       .  S
N39          C43   1.364       .  A
N39          C40   1.365       .  A
C40          C41   1.385       .  A
C40         C710   1.496       .  S
C41          C42   1.367       .  A
C41          H44   1.082       .  S
C42          C43   1.384       .  A
C42          H45   1.082       .  S
C43         C694   1.489       .  S
N46          C50   1.362       .  A
N46          C47   1.363       .  A
N46          C56   1.442       .  S
C47          C48   1.385       .  A
C47         C674   1.491       .  S
C48          C49   1.368       .  A
C48          H51   1.082       .  S
C49          C50   1.385       .  A
C49          H52   1.082       .  S
C50         C764   1.487       .  S
N53          N54   1.324       .  A
N53          C57   1.347       .  A
N53         Cu61   2.076       .  S
N54          C55   1.351       .  A
N54         Cu60   2.096       .  S
C55          C56   1.387       .  A
C55          H58   1.081       .  S
C56          C57   1.381       .  A
C57          H59   1.082       .  S
Cu60         N63   2.096       .  S
Cu61         N71   2.075       .  S
Cu62         N64   2.098       .  S
Cu62         N70   2.097       .  S
N63          N64   1.327       .  A
N63          C67   1.349       .  A
N64          C65   1.350       .  A
C65          C66   1.384       .  A
C65          H68   1.081       .  S
C66          C67   1.383       .  A
C66          N77   1.444       .  S
C67          H69   1.081       .  S
N70          N71   1.322       .  A
N70          C74   1.352       .  A
N71          C72   1.342       .  A
C72          C73   1.386       .  A
C72          H75   1.082       .  S
C73          C74   1.394       .  A
C73          N84   1.451       .  S
C74          H76   1.078       .  S
N77          C81   1.362       .  A
N77          C78   1.363       .  A
C78          C79   1.385       .  A
C78         C638   1.486       .  S
C79          C80   1.365       .  A
C79          H82   1.082       .  S
C80          C81   1.384       .  A
C80          H83   1.082       .  S
C81         C656   1.486       .  S
N84          C88   1.360       .  A
N84          C85   1.365       .  A
C85          C86   1.388       .  A
C85         C712   1.488       .  S
C86          C87   1.371       .  A
C86          H89   1.082       .  S
C87          C88   1.380       .  A
C87          H90   1.082       .  S
C88         C622   1.485       .  S
N91          C95   1.365       .  A
N91          C92   1.362       .  A
N91         C111   1.443       .  S
C92          C93   1.383       .  A
C92         C692   1.489       .  S
C93          C94   1.368       .  A
C93          H96   1.082       .  S
C94          C95   1.386       .  A
C94          H97   1.082       .  S
C95         C604   1.492       .  S
N98          N99   1.324       .  A
N98         C102   1.349       .  A
N98        Cu106   2.088       .  S
N99         C100   1.346       .  A
N99        Cu105   2.081       .  S
C100        C101   1.382       .  A
C100        H103   1.082       .  S
C101        C102   1.385       .  A
C101        N129   1.442       .  S
C102        H104   1.081       .  S
Cu105       N108   2.081       .  S
Cu106       N116   2.088       .  S
Cu107       N109   2.092       .  S
Cu107       N115   2.092       .  S
N108        N109   1.324       .  A
N108        C112   1.348       .  A
N109        C110   1.348       .  A
C110        C111   1.385       .  A
C110        H113   1.081       .  S
C111        C112   1.383       .  A
C112        H114   1.081       .  S
N115        N116   1.325       .  A
N115        C119   1.347       .  A
N116        C117   1.349       .  A
C117        C118   1.384       .  A
C117        H120   1.081       .  S
C118        C119   1.384       .  A
C118        N122   1.444       .  S
C119        H121   1.081       .  S
N122        C126   1.364       .  A
N122        C123   1.363       .  A
C123        C124   1.385       .  A
C123        C568   1.489       .  S
C124        C125   1.367       .  A
C124        H127   1.082       .  S
C125        C126   1.385       .  A
C125        H128   1.081       .  S
C126        C584   1.491       .  S
N129        C133   1.362       .  A
N129        C130   1.362       .  A
C130        C131   1.385       .  A
C130        C748   1.488       .  S
C131        C132   1.369       .  A
C131        H134   1.082       .  S
C132        C133   1.385       .  A
C132        H135   1.082       .  S
C133        C550   1.491       .  S
N136        C140   1.369       .  A
N136        C137   1.367       .  A
N136        C156   1.449       .  S
C137        C138   1.383       .  A
C137        C530   1.493       .  S
C138        C139   1.364       .  A
C138        H141   1.082       .  S
C139        C140   1.385       .  A
C139        H142   1.082       .  S
C140        C512   1.495       .  S
N143        N144   1.325       .  A
N143        C147   1.348       .  A
N143       Cu151   2.085       .  S
N144        C145   1.349       .  A
N144       Cu150   2.098       .  S
C145        C146   1.387       .  A
C145        H148   1.081       .  S
C146        C147   1.384       .  A
C146        N174   1.446       .  S
C147        H149   1.081       .  S
Cu150       N153   2.098       .  S
Cu151       N161   2.085       .  S
Cu152       N154   2.094       .  S
Cu152       N160   2.093       .  S
N153        N154   1.325       .  A
N153        C157   1.351       .  A
N154        C155   1.349       .  A
C155        C156   1.386       .  A
C155        H158   1.081       .  S
C156        C157   1.387       .  A
C157        H159   1.080       .  S
N160        N161   1.324       .  A
N160        C164   1.349       .  A
N161        C162   1.348       .  A
C162        C163   1.385       .  A
C162        H165   1.080       .  S
C163        C164   1.387       .  A
C163        N167   1.446       .  S
C164        H166   1.081       .  S
N167        C171   1.364       .  A
N167        C168   1.365       .  A
C168        C169   1.385       .  A
C168        C566   1.491       .  S
C169        C170   1.365       .  A
C169        H172   1.082       .  S
C170        C171   1.383       .  A
C170        H173   1.082       .  S
C171        C494   1.487       .  S
N174        C178   1.365       .  A
N174        C175   1.366       .  A
C175        C176   1.385       .  A
C175        C478   1.493       .  S
C176        C177   1.366       .  A
C176        H179   1.082       .  S
C177        C178   1.384       .  A
C177        H180   1.082       .  S
C178        C602   1.492       .  S
N181        C185   1.360       .  A
N181        C182   1.364       .  A
N181        C201   1.449       .  S
C182        C183   1.389       .  A
C182        C548   1.487       .  S
C183        C184   1.369       .  A
C183        H186   1.082       .  S
C184        C185   1.379       .  A
C184        H187   1.083       .  S
C185        C458   1.482       .  S
N188        N189   1.322       .  A
N188        C192   1.350       .  A
N188       Cu196   2.089       .  S
N189        C190   1.346       .  A
N189       Cu195   2.072       .  S
C190        C191   1.382       .  A
C190        H193   1.081       .  S
C191        C192   1.387       .  A
C191        N212   1.443       .  S
C192        H194   1.081       .  S
Cu195       N198   2.072       .  S
Cu196       N206   2.090       .  S
Cu197       N199   2.105       .  S
Cu197       N205   2.107       .  S
N198        N199   1.323       .  A
N198        C202   1.341       .  A
N199        C200   1.354       .  A
C200        C201   1.394       .  A
C200        H203   1.078       .  S
C201        C202   1.383       .  A
C202        H204   1.082       .  S
N205        N206   1.327       .  A
N205        C209   1.353       .  A
N206        C207   1.347       .  A
C207        C208   1.381       .  A
C207        H210   1.082       .  S
C208        C209   1.387       .  A
C208        N219   1.445       .  S
C209        H211   1.081       .  S
N212        C216   1.363       .  A
N212        C213   1.360       .  A
C213        C214   1.382       .  A
C213        C640   1.486       .  S
C214        C215   1.368       .  A
C214        H217   1.082       .  S
C215        C216   1.387       .  A
C215        H218   1.082       .  S
C216        C586   1.488       .  S
N219        C223   1.364       .  A
N219        C220   1.365       .  A
C220        C221   1.386       .  A
C220        C676   1.491       .  S
C221        C222   1.365       .  A
C221        H224   1.082       .  S
C222        C223   1.383       .  A
C222        H225   1.082       .  S
C223        C440   1.491       .  S
N226        C230   1.363       .  A
N226        C227   1.364       .  A
N226        C253   1.442       .  S
C227        C228   1.386       .  A
C227        C476   1.494       .  S
C228        C229   1.368       .  A
C228        H231   1.082       .  S
C229        C230   1.384       .  A
C229        H232   1.082       .  S
C230        C422   1.492       .  S
N233        N234   1.323       .  A
N233        C237   1.344       .  A
N233       Cu241   2.081       .  S
N234        C235   1.351       .  A
N234       Cu240   2.100       .  S
C235        C236   1.394       .  A
C235        H238   1.078       .  S
C236        C237   1.387       .  A
C236        N264   1.451       .  S
C237        H239   1.082       .  S
Cu240       N243   2.101       .  S
Cu241       N251   2.081       .  S
Cu242       N244   2.094       .  S
Cu242       N250   2.093       .  S
N243        N244   1.326       .  A
N243        C247   1.350       .  A
N244        C245   1.350       .  A
C245        C246   1.384       .  A
C245        H248   1.081       .  S
C246        C247   1.387       .  A
C246        N257   1.447       .  S
C247        H249   1.081       .  S
N250        N251   1.324       .  A
N250        C254   1.349       .  A
N251        C252   1.348       .  A
C252        C253   1.382       .  A
C252        H255   1.082       .  S
C253        C254   1.385       .  A
C254        H256   1.081       .  S
N257        C261   1.367       .  A
N257        C258   1.366       .  A
C258        C259   1.384       .  A
C258        C532   1.491       .  S
C259        C260   1.364       .  A
C259        H262   1.082       .  S
C260        C261   1.385       .  A
C260        H263   1.082       .  S
C261        C442   1.492       .  S
N264        C268   1.364       .  A
N264        C265   1.361       .  A
C265        C266   1.381       .  A
C265        C460   1.484       .  S
C266        C267   1.368       .  A
C266        H269   1.082       .  S
C267        C268   1.387       .  A
C267        H270   1.082       .  S
C268        C406   1.487       .  S
N271        C275   1.358       .  A
N271        C272   1.365       .  A
N271        C291   1.445       .  S
C272        C273   1.389       .  A
C272        C424   1.491       .  S
C273        C274   1.370       .  A
C273        H276   1.081       .  S
C274        C275   1.379       .  A
C274        H277   1.083       .  S
C275        C620   1.480       .  S
N278        N279   1.326       .  A
N278        C282   1.349       .  A
N278       Cu286   2.095       .  S
N279        C280   1.348       .  A
N279       Cu285   2.092       .  S
C280        C281   1.383       .  A
C280        H283   1.081       .  S
C281        C282   1.384       .  A
C281        N302   1.443       .  S
C282        H284   1.081       .  S
Cu285       N288   2.091       .  S
Cu286       N296   2.094       .  S
Cu287       N289   2.079       .  S
Cu287       N295   2.078       .  S
N288        N289   1.323       .  A
N288        C292   1.352       .  A
N289        C290   1.344       .  A
C290        C291   1.383       .  A
C290        H293   1.082       .  S
C291        C292   1.388       .  A
C292        H294   1.080       .  S
N295        N296   1.323       .  A
N295        C299   1.347       .  A
N296        C297   1.349       .  A
C297        C298   1.387       .  A
C297        H300   1.082       .  S
C298        C299   1.383       .  A
C298        N309   1.445       .  S
C299        H301   1.080       .  S
N302        C306   1.363       .  A
N302        C303   1.361       .  A
C303        C304   1.383       .  A
C303        C386   1.484       .  S
C304        C305   1.366       .  A
C304        H307   1.082       .  S
C305        C306   1.386       .  A
C305        H308   1.082       .  S
C306        C658   1.487       .  S
N309        C313   1.364       .  A
N309        C310   1.364       .  A
C310        C311   1.383       .  A
C310        C368   1.489       .  S
C311        C312   1.368       .  A
C311        H314   1.082       .  S
C312        C313   1.387       .  A
C312        H315   1.081       .  S
C313        C404   1.494       .  S
N316        C320   1.364       .  A
N316        C317   1.365       .  A
N316        C336   1.446       .  S
C317        C318   1.384       .  A
C317        C370   1.490       .  S
C318        C319   1.366       .  A
C318        H321   1.082       .  S
C319        C320   1.385       .  A
C319        H322   1.082       .  S
C320        C728   1.489       .  S
N323        N324   1.326       .  A
N323        C327   1.350       .  A
N323       Cu331   2.096       .  S
N324        C325   1.348       .  A
N324       Cu330   2.091       .  S
C325        C326   1.383       .  A
C325        H328   1.082       .  S
C326        C327   1.385       .  A
C326        N347   1.444       .  S
C327        H329   1.081       .  S
Cu330       N333   2.090       .  S
Cu331       N341   2.096       .  S
Cu332       N334   2.082       .  S
Cu332       N340   2.082       .  S
N333        N334   1.323       .  A
N333        C337   1.349       .  A
N334        C335   1.347       .  A
C335        C336   1.384       .  A
C335        H338   1.081       .  S
C336        C337   1.387       .  A
C337        H339   1.081       .  S
N340        N341   1.324       .  A
N340        C344   1.347       .  A
N341        C342   1.350       .  A
C342        C343   1.387       .  A
C342        H345   1.081       .  S
C343        C344   1.383       .  A
C343        N354   1.445       .  S
C344        H346   1.081       .  S
N347        C351   1.362       .  A
N347        C348   1.362       .  A
C348        C349   1.385       .  A
C348        C388   1.485       .  S
C349        C350   1.367       .  A
C349        H352   1.082       .  S
C350        C351   1.385       .  A
C350        H353   1.082       .  S
C351        C496   1.487       .  S
N354        C358   1.366       .  A
N354        C355   1.366       .  A
C355        C356   1.385       .  A
C355        C782   1.494       .  S
C356        C357   1.367       .  A
C356        H359   1.082       .  S
C357        C358   1.384       .  A
C357        H360   1.082       .  S
C358        C514   1.496       .  S
C361        C362   1.408       .  A
C361        C366   1.405       .  A
C361        C369   1.491       .  S
C362        C363   1.400       .  A
C362        H371   1.083       .  S
C363        C364   1.406       .  A
C363        H372   1.081       .  S
C364        C365   1.407       .  A
C364        C367   1.491       .  S
C365        C366   1.399       .  A
C365        H373   1.083       .  S
C366        H374   1.080       .  S
C367        H375   1.087       .  S
C367        C368   1.352       .  D
C368        H376   1.079       .  S
C369        H377   1.087       .  S
C369        C370   1.353       .  D
C370        H378   1.079       .  S
C379        C380   1.408   1_455  A
C379        C384   1.406       .  A
C379        C387   1.489       .  S
C380        C381   1.399       .  A
C380        H389   1.083       .  S
C381        C382   1.404       .  A
C381        H390   1.081       .  S
C382        C383   1.406   1_655  A
C382        C385   1.486       .  S
C383        C384   1.397       .  A
C383        H391   1.084       .  S
C384        H392   1.080       .  S
C385        H393   1.087       .  S
C385        C386   1.351       .  D
C386        H394   1.082       .  S
C387        H395   1.087       .  S
C387        C388   1.351       .  D
C388        H396   1.080       .  S
C397        C398   1.406   1_556  A
C397        C402   1.404       .  A
C397        C405   1.487       .  S
C398        C399   1.401       .  A
C398        H407   1.083       .  S
C399        C400   1.406       .  A
C399        H408   1.080       .  S
C400        C401   1.408   1_554  A
C400        C403   1.491       .  S
C401        C402   1.399       .  A
C401        H409   1.083       .  S
C402        H410   1.082       .  S
C403        H411   1.084       .  S
C403        C404   1.354       .  D
C404        H412   1.081       .  S
C405        H413   1.086       .  S
C405        C406   1.351       .  D
C406        H414   1.082       .  S
C415        C416   1.408       .  A
C415        C420   1.404       .  A
C415        C423   1.490       .  S
C416        C417   1.402       .  A
C416        H425   1.083       .  S
C417        C418   1.406       .  A
C417        H426   1.081       .  S
C418        C419   1.407       .  A
C418        C421   1.491       .  S
C419        C420   1.398       .  A
C419        H427   1.083       .  S
C420        H428   1.081       .  S
C421        H429   1.086       .  S
C421        C422   1.353       .  D
C422        H430   1.081       .  S
C423        H431   1.085       .  S
C423        C424   1.354       .  D
C424        H432   1.078       .  S
C433        C434   1.410   1_565  A
C433        C438   1.405       .  A
C433        C441   1.493       .  S
C434        C435   1.402       .  A
C434        H443   1.083       .  S
C435        C436   1.405       .  A
C435        H444   1.081       .  S
C436        C437   1.408       .  A
C436        C439   1.492       .  S
C437        C438   1.400   1_545  A
C437        H445   1.083   1_545  S
C438        H446   1.080       .  S
C439        H447   1.087       .  S
C439        C440   1.354       .  D
C440        H448   1.082       .  S
C441        H449   1.087       .  S
C441        C442   1.356       .  D
C442        H450   1.080       .  S
C451        C452   1.402       .  A
C451        C456   1.408       .  A
C451        C459   1.483       .  S
C452        C453   1.400       .  A
C452        H461   1.083       .  S
C453        C454   1.405       .  A
C453        H462   1.083       .  S
C454        C455   1.402       .  A
C454        C457   1.480       .  S
C455        C456   1.402       .  A
C455        H463   1.083       .  S
C456        H464   1.083       .  S
C457        H465   1.087       .  S
C457        C458   1.343       .  D
C458        H466   1.086       .  S
C459        H467   1.087       .  S
C459        C460   1.345       .  D
C460        H468   1.086       .  S
C469        C470   1.408   1_455  A
C469        C474   1.406       .  A
C469        C477   1.494       .  S
C470        C471   1.401       .  A
C470        H479   1.083       .  S
C471        C472   1.405       .  A
C471        H480   1.080       .  S
C472        C473   1.409   1_655  A
C472        C475   1.494       .  S
C473        C474   1.401       .  A
C473        H481   1.083       .  S
C474        H482   1.080       .  S
C475        H483   1.086       .  S
C475        C476   1.356       .  D
C476        H484   1.081       .  S
C477        H485   1.087       .  S
C477        C478   1.355       .  D
C478        H486   1.079       .  S
C487        C488   1.408       .  A
C487        C492   1.405       .  A
C487        C495   1.489       .  S
C488        C489   1.400       .  A
C488        H497   1.084       .  S
C489        C490   1.406       .  A
C489        H498   1.080       .  S
C490        C491   1.407       .  A
C490        C493   1.490       .  S
C491        C492   1.398       .  A
C491        H499   1.084       .  S
C492        H500   1.080       .  S
C493        H501   1.088       .  S
C493        C494   1.351       .  D
C494        H502   1.079       .  S
C495        H503   1.087       .  S
C495        C496   1.353       .  D
C496        H504   1.081       .  S
C505        C506   1.409   1_554  A
C505        C510   1.406       .  A
C505        C513   1.495       .  S
C506        C507   1.401       .  A
C506        H515   1.083       .  S
C507        C508   1.405       .  A
C507        H516   1.080       .  S
C508        C509   1.409   1_556  A
C508        C511   1.495       .  S
C509        C510   1.402       .  A
C509        H517   1.083       .  S
C510        H518   1.080       .  S
C511        H519   1.086       .  S
C511        C512   1.357       .  D
C512        H520   1.079       .  S
C513        H521   1.086       .  S
C513        C514   1.355       .  D
C514        H522   1.080       .  S
C523        C524   1.408       .  A
C523        C528   1.405       .  A
C523        C531   1.492       .  S
C524        C525   1.401       .  A
C524        H533   1.083       .  S
C525        C526   1.405       .  A
C525        H534   1.080       .  S
C526        C527   1.409       .  A
C526        C529   1.493       .  S
C527        C528   1.401       .  A
C527        H535   1.083       .  S
C528        H536   1.081       .  S
C529        H537   1.087       .  S
C529        C530   1.355       .  D
C530        H538   1.079       .  S
C531        H539   1.087       .  S
C531        C532   1.355       .  D
C532        H540   1.081       .  S
C541        C542   1.408   1_455  A
C541        C546   1.407       .  A
C541        C549   1.490       .  S
C542        C543   1.398       .  A
C542        H551   1.083       .  S
C543        C544   1.403       .  A
C543        H552   1.082       .  S
C544        C545   1.406   1_655  A
C544        C547   1.486       .  S
C545        C546   1.400       .  A
C545        H553   1.084       .  S
C546        H554   1.080       .  S
C547        H555   1.086       .  S
C547        C548   1.352       .  D
C548        H556   1.081       .  S
C549        H557   1.086       .  S
C549        C550   1.352       .  D
C550        H558   1.080       .  S
C559        C560   1.407   1_545  A
C559        C564   1.405       .  A
C559        C567   1.489       .  S
C560        C561   1.399       .  A
C560        H569   1.084       .  S
C561        C562   1.405       .  A
C561        H570   1.081       .  S
C562        C563   1.408   1_565  A
C562        C565   1.490       .  S
C563        C564   1.401       .  A
C563        H571   1.083       .  S
C564        H572   1.081       .  S
C565        H573   1.086       .  S
C565        C566   1.353       .  D
C566        H574   1.080       .  S
C567        H575   1.087       .  S
C567        C568   1.353       .  D
C568        H576   1.081       .  S
C577        C578   1.406       .  A
C577        C582   1.406       .  A
C577        C585   1.489       .  S
C578        C579   1.398       .  A
C578        H587   1.084       .  S
C579        C580   1.406       .  A
C579        H588   1.080       .  S
C580        C581   1.407       .  A
C580        C583   1.489       .  S
C581        C582   1.399       .  A
C581        H589   1.083       .  S
C582        H590   1.081       .  S
C583        H591   1.085       .  S
C583        C584   1.351       .  D
C584        H592   1.079       .  S
C585        H593   1.086       .  S
C585        C586   1.351       .  D
C586        H594   1.078       .  S
C595        C596   1.408       .  A
C595        C600   1.406       .  A
C595        C603   1.493       .  S
C596        C597   1.400       .  A
C596        H605   1.083       .  S
C597        C598   1.406       .  A
C597        H606   1.080       .  S
C598        C599   1.408       .  A
C598        C601   1.493       .  S
C599        C600   1.400       .  A
C599        H607   1.083       .  S
C600        H608   1.080       .  S
C601        H609   1.087       .  S
C601        C602   1.354       .  D
C602        H610   1.079       .  S
C603        H611   1.086       .  S
C603        C604   1.354       .  D
C604        H612   1.079       .  S
C613        C614   1.403       .  A
C613        C618   1.407       .  A
C613        C621   1.484       .  S
C614        C615   1.400   1_545  A
C614        H623   1.083       .  S
C615        C616   1.407       .  A
C615        H624   1.083       .  S
C616        C617   1.403       .  A
C616        C619   1.483       .  S
C617        C618   1.402   1_565  A
C617        H625   1.083       .  S
C618        H626   1.083       .  S
C619        H627   1.087       .  S
C619        C620   1.343       .  D
C620        H628   1.086       .  S
C621        H629   1.087       .  S
C621        C622   1.344       .  D
C622        H630   1.086       .  S
C631        C632   1.406   1_556  A
C631        C636   1.405       .  A
C631        C639   1.488       .  S
C632        C633   1.398       .  A
C632        H641   1.084       .  S
C633        C634   1.405       .  A
C633        H642   1.080       .  S
C634        C635   1.408   1_554  A
C634        C637   1.490       .  S
C635        C636   1.400       .  A
C635        H643   1.083       .  S
C636        H644   1.081       .  S
C637        H645   1.087       .  S
C637        C638   1.353       .  D
C638        H646   1.081       .  S
C639        H647   1.088       .  S
C639        C640   1.351       .  D
C640        H648   1.081       .  S
C649        C650   1.408       .  A
C649        C654   1.406       .  A
C649        C657   1.489       .  S
C650        C651   1.400       .  A
C650        H659   1.083       .  S
C651        C652   1.405       .  A
C651        H660   1.081       .  S
C652        C653   1.406       .  A
C652        C655   1.487       .  S
C653        C654   1.397       .  A
C653        H661   1.084       .  S
C654        H662   1.080       .  S
C655        H663   1.087       .  S
C655        C656   1.351       .  D
C656        H664   1.081       .  S
C657        H665   1.086       .  S
C657        C658   1.352       .  D
C658        H666   1.079       .  S
C667        C668   1.408       .  A
C667        C672   1.404       .  A
C667        C675   1.490       .  S
C668        C669   1.400       .  A
C668        H677   1.084       .  S
C669        C670   1.405       .  A
C669        H678   1.081       .  S
C670        C671   1.409       .  A
C670        C673   1.491       .  S
C671        C672   1.401       .  A
C671        H679   1.083       .  S
C672        H680   1.081       .  S
C673        H681   1.086       .  S
C673        C674   1.354       .  D
C674        H682   1.082       .  S
C675        H683   1.087       .  S
C675        C676   1.355       .  D
C676        H684   1.082       .  S
C685        C686   1.405       .  A
C685        C690   1.408   1_554  A
C685        C693   1.491       .  S
C686        C687   1.399       .  A
C686        H695   1.081       .  S
C687        C688   1.407   1_554  A
C687        H696   1.083       .  S
C688        C689   1.405       .  A
C688        C691   1.490       .  S
C689        C690   1.400       .  A
C689        H697   1.081       .  S
C690        H698   1.083       .  S
C691        H699   1.087       .  S
C691        C692   1.352       .  D
C692        H700   1.081       .  S
C693        H701   1.087       .  S
C693        C694   1.353       .  D
C694        H702   1.079       .  S
C703        C704   1.408       .  A
C703        C708   1.404       .  A
C703        C711   1.492       .  S
C704        C705   1.403       .  A
C704        H713   1.083       .  S
C705        C706   1.407       .  A
C705        H714   1.080       .  S
C706        C707   1.407       .  A
C706        C709   1.492       .  S
C707        C708   1.398       .  A
C707        H715   1.083       .  S
C708        H716   1.081       .  S
C709        H717   1.085       .  S
C709        C710   1.354       .  D
C710        H718   1.080       .  S
C711        H719   1.086       .  S
C711        C712   1.354       .  D
C712        H720   1.080       .  S
C721        C722   1.406   1_545  A
C721        C726   1.406       .  A
C721        C729   1.491       .  S
C722        C723   1.398       .  A
C722        H731   1.083       .  S
C723        C724   1.406       .  A
C723        H732   1.080       .  S
C724        C725   1.408   1_565  A
C724        C727   1.492       .  S
C725        C726   1.400       .  A
C725        H733   1.083       .  S
C726        H734   1.080       .  S
C727        H735   1.087       .  S
C727        C728   1.353       .  D
C728        H736   1.078       .  S
C729        H737   1.087       .  S
C729        C730   1.351       .  D
C730        H738   1.080       .  S
C739        C740   1.405       .  A
C739        C744   1.405       .  A
C739        C747   1.489       .  S
C740        C741   1.398       .  A
C740        H749   1.084       .  S
C741        C742   1.407       .  A
C741        H750   1.080       .  S
C742        C743   1.407       .  A
C742        C745   1.491       .  S
C743        C744   1.400       .  A
C743        H751   1.083       .  S
C744        H752   1.081       .  S
C745        H753   1.086       .  S
C745        C746   1.351       .  D
C746        H754   1.079       .  S
C747        H755   1.086       .  S
C747        C748   1.351       .  D
C748        H756   1.079       .  S
C757        C758   1.407       .  A
C757        C762   1.406       .  A
C757        C765   1.491       .  S
C758        C759   1.399   1_455  A
C758        H767   1.083   1_455  S
C759        C760   1.405       .  A
C759        H768   1.081       .  S
C760        C761   1.407   1_655  A
C760        C763   1.489       .  S
C761        C762   1.399       .  A
C761        H769   1.084       .  S
C762        H770   1.080       .  S
C763        H771   1.087       .  S
C763        C764   1.352       .  D
C764        H772   1.081       .  S
C765        H773   1.087       .  S
C765        C766   1.352       .  D
C766        H774   1.080       .  S
C775        C776   1.408       .  A
C775        C780   1.406       .  A
C775        C783   1.492       .  S
C776        C777   1.401       .  A
C776        H785   1.084       .  S
C777        C778   1.406       .  A
C777        H786   1.080       .  S
C778        C779   1.408       .  A
C778        C781   1.493       .  S
C779        C780   1.400       .  A
C779        H787   1.083       .  S
C780        H788   1.080       .  S
C781        H789   1.086       .  S
C781        C782   1.354       .  D
C782        H790   1.079       .  S
C783        H791   1.086       .  S
C783        C784   1.354       .  D
C784        H792   1.079       .  S
