geometry optimzed in LAMMPS
_audit_creation_date              2020-11-30 
_audit_creation_method            'lammps2cif' 
_symmetry_space_group_name_H-M    'P1' 
_symmetry_Int_Tables_number       1 
_symmetry_cell_setting            triclinic 
loop_ 
_symmetry_equiv_pos_as_xyz 
  x,y,z 
_cell_length_a                    48.21959762 
_cell_length_b                    23.2581144681799 
_cell_length_c                    24.853456430816433 
_cell_angle_alpha                 80.56523663818459 
_cell_angle_beta                  76.76537604402773 
_cell_angle_gamma                 89.4178477007229 
loop_ 
_atom_site_label 
_atom_site_type_symbol 
_atom_site_fract_x 
_atom_site_fract_y 
_atom_site_fract_z 
_atom_site_charge 
N1          N  0.34254239  0.71700250  0.98866336    -0.03400
C2          C  0.36321499  0.75883699  0.98127526    -0.00800
C3          C  0.31246581  0.83278388  0.49125847    -0.23600
C4          C  0.29237370  0.80480293  0.47334067    -0.23900
C5          C  0.29590290  0.74572910  0.48797858    -0.00900
H6          H  0.31801009  0.87887554  0.48017283     0.12900
H7          H  0.27934655  0.82505414  0.44574268     0.13000
N8          N  0.14058532  0.78762412  0.01498678    -0.03400
C9          C  0.13218855  0.84143061  0.99488546    -0.00800
C10         C  0.14650921  0.88462510  0.01088385    -0.23600
C11         C  0.16360273  0.85729307  0.04339414    -0.23900
C12         C  0.15953376  0.79846020  0.04534546    -0.00900
H13         H  0.14218632  0.93072740  0.00557806     0.12900
H14         H  0.17596680  0.87779242  0.06666871     0.13000
N15         N  0.28317636  0.22383393  0.06439254    -0.03400
C16         C  0.29644906  0.17268442  0.05809126    -0.00800
C17         C  0.28428618  0.13046647  0.10361581    -0.23600
C18         C  0.26737842  0.15866688  0.14272286    -0.23900
C19         C  0.26824686  0.21661640  0.11851383    -0.00900
H20         H  0.29216824  0.08710465  0.11313878     0.12900
H21         H  0.25869651  0.14001790  0.18611606     0.13000
N22         N  0.01198855  0.04846819  0.52310769    -0.36500
N23         N  0.47587246  0.95037536  0.49533921    -0.57000
N24         N  0.42760134  0.02434524  0.49582096    -0.36500
N25         N  0.46622822  0.12596917  0.00939620    -0.57000
C26         C  0.03321216  0.01022482  0.51312910     0.27100
C27         C  0.02031602  0.09717001  0.02109412     0.27100
C28         C  0.41423126  0.97113139  0.50899190     0.27100
C29         C  0.40733408  0.06442987  0.50505739     0.27100
C30         C  0.00353415  0.91853489  0.54397175     0.35700
C31         C  0.45705680  0.91139830  0.48800502     0.35700
C32         C  0.48297953  0.16578236  0.02208369     0.35700
C33         C  0.43973689  0.14790690  0.01567791     0.35700
C34         C  0.05911874  0.04081157  0.49401862    -0.21800
C35         C  0.04582275  0.08289713  0.03623559    -0.21800
C36         C  0.38504192  0.97798754  0.52570897    -0.21800
C37         C  0.38073869  0.03650408  0.52352298    -0.21800
C38         C  0.99913467  0.86080516  0.56984319    -0.22800
C39         C  0.47116085  0.86432598  0.46805187    -0.22800
C40         C  0.46720588  0.21410592  0.03449882    -0.22800
C41         C  0.43995640  0.20308741  0.02971425    -0.22800
C42         C  0.03015351  0.94852777  0.52633157    -0.18200
C43         C  0.00749835  0.15256674  0.02270553    -0.18200
C44         C  0.41554375  0.11857138  0.00832358    -0.18200
C45         C  0.42727910  0.91697304  0.50219479    -0.18200
H46         H  0.08011830  0.02292042  0.48380934     0.14700
H47         H  0.05929111  0.11049040  0.05125709     0.14700
H48         H  0.36826413  0.94474166  0.53725948     0.14700
H49         H  0.36018975  0.05610414  0.53438083     0.14700
H50         H  0.01483719  0.83067671  0.58147094     0.13000
H51         H  0.46188877  0.82581380  0.45909043     0.13000
H52         H  0.47436964  0.25311056  0.04633911     0.13000
H53         H  0.42223542  0.23197115  0.03683223     0.13000
H54         H  0.49423460  0.05189281  0.47902630     0.26300
H55         H  0.44884913  0.03380518  0.47578854     0.26300
N56         N  0.07338295  0.35026048  0.13190791    -0.03400
C57         C  0.04791816  0.32150768  0.14002230    -0.00800
C58         C  0.03094891  0.33013492  0.19114850    -0.23600
C59         C  0.04678389  0.36284045  0.21540440    -0.23900
C60         C  0.07291993  0.37438583  0.17827160    -0.00900
H61         H  0.00973616  0.31201930  0.21033293     0.12900
H62         H  0.04032312  0.37474019  0.25667979     0.13000
O63         O  0.20487771  0.58300975  0.40962059    -0.80000
O64         O  0.19623758  0.47488636  0.20978648    -0.80000
O65         O  0.21411885  0.66693705  0.24106056    -0.80000
O66         O  0.16302351  0.47647161  0.39482463    -0.80000
O67         O  0.20068674  0.58788299  0.21330398    -0.80100
O68         O  0.19325596  0.46691810  0.44776726    -0.80000
O69         O  0.16490207  0.47947649  0.28727054    -0.80000
O70         O  0.18314144  0.60713128  0.33979845    -0.80100
C71         C  0.18614399  0.61185599  0.38840498     1.09700
C72         C  0.17048125  0.46963467  0.23783643     1.09600
C73         C  0.20174041  0.64385238  0.21003114     1.09700
C74         C  0.16774010  0.46413838  0.44257327     1.09600
O75         O  0.24732881  0.44001460  0.37961777    -0.80000
O76         O  0.24810626  0.54065230  0.15885401    -0.80100
O77         O  0.24133547  0.63251447  0.32280900    -0.80000
O78         O  0.20943977  0.39444393  0.28055760    -0.80000
O79         O  0.24896038  0.44719665  0.24296650    -0.80100
O80         O  0.26172586  0.55323438  0.34796608    -0.80000
O81         O  0.20808013  0.38792440  0.39128314    -0.80000
O82         O  0.25629537  0.59044468  0.22282638    -0.80100
Co83       Co  0.22679065  0.51090216  0.39144024     1.51500
Co84       Co  0.22652375  0.51837747  0.23424138     1.51700
Co85       Co  0.21755856  0.59315049  0.28299010     1.51600
Co86       Co  0.18725163  0.43893574  0.33753475     1.51500
O87         O  0.21406050  0.50872514  0.31888188    -1.42000
C88         C  0.23376160  0.39226278  0.39682146     1.09600
C89         C  0.26274220  0.57928713  0.17189432     1.09700
C90         C  0.26018832  0.60728757  0.34471411     1.09600
C91         C  0.23496674  0.39924517  0.25163379     1.09600
C92         C  0.11484836  0.44624549  0.15600058    -0.26200
C93         C  0.09834530  0.39954405  0.19213558    -0.14300
C94         C  0.10674464  0.37522758  0.24151286     0.36400
C95         C  0.13061870  0.39840197  0.25458399    -0.25600
C96         C  0.14721069  0.44453057  0.21838540    -0.14900
C97         C  0.13947842  0.46809017  0.16836997     0.37400
N98         N  0.15587437  0.51556519  0.13129591    -0.89100
H99         H  0.10851399  0.46645438  0.11846956     0.18600
H100        H  0.13638804  0.37978079  0.29334098     0.18600
N101        N  0.09141403  0.32595342  0.27804907    -0.88200
H102        H  0.14225162  0.55027174  0.12701996     0.35900
H103        H  0.16285585  0.50291746  0.09203222     0.41000
H104        H  0.08418538  0.33730939  0.31780426     0.40600
H105        H  0.10560854  0.29197185  0.28128557     0.35500
C106        C  0.15065655  0.38998420  0.52741408    -0.26200
C107        C  0.14436044  0.43661346  0.48887749    -0.14300
C108        C  0.11243426  0.44178012  0.00173178     0.36400
C109        C  0.09001990  0.41292499  0.04269368    -0.25600
C110        C  0.09482745  0.36490652  0.08117631    -0.14900
C111        C  0.12271243  0.34418775  0.07752451     0.37400
N112        N  0.12883556  0.29524853  0.11603585    -0.89100
H113        H  0.17257475  0.37805269  0.52556454     0.18600
H114        H  0.06883556  0.43035297  0.04714302     0.18600
N115        N  0.10620141  0.49248998  0.96561788    -0.88200
H116        H  0.14693777  0.27910208  0.58123793     0.35900
H117        H  0.11014351  0.27682223  0.14345534     0.41000
H118        H  0.11212480  0.48723583  0.41280203     0.40600
H119        H  0.11898996  0.52743696  0.96831856     0.35500
C120        C  0.04502739  0.28801739  0.04859860    -0.26200
C121        C  0.04070059  0.27680535  0.10743447    -0.14300
C122        C  0.02775979  0.22258205  0.13646288     0.36400
C123        C  0.01704065  0.18424175  0.10742827    -0.25600
C124        C  0.02032649  0.19622335  0.04918271    -0.14900
C125        C  0.03555198  0.24793275  0.01904898     0.37400
N126        N  0.02236149  0.28003723  0.45971968    -0.89100
H127        H  0.05530277  0.32848523  0.02522308     0.18600
H128        H  0.00622241  0.14395026  0.13046369     0.18600
N129        N  0.02586244  0.20605519  0.19558760    -0.88200
H130        H  0.00549730  0.30867036  0.46569460     0.35900
H131        H  0.01578201  0.24564062  0.44296044     0.41000
H132        H  0.04665097  0.20208785  0.20130894     0.40600
H133        H  0.01580375  0.16504230  0.21060812     0.35500
C134        C  0.37032406  0.15952657  0.45554428    -0.26200
C135        C  0.38707736  0.14656050  0.01727148    -0.14300
C136        C  0.37237742  0.15180746  0.07196887     0.36400
C137        C  0.34366973  0.16668065  0.08236856    -0.25600
C138        C  0.32821162  0.17183392  0.04006509    -0.14900
C139        C  0.34318587  0.16931986  0.98448789     0.37400
N140        N  0.32573169  0.16703900  0.42395663    -0.89100
H141        H  0.37963401  0.14039936  0.41880381     0.18600
H142        H  0.33274202  0.16952866  0.12509575     0.18600
N143        N  0.38605703  0.13827879  0.11781490    -0.88200
H144        H  0.33526801  0.19413919  0.38646284     0.35900
H145        H  0.30491136  0.18116109  0.43544754     0.41000
H146        H  0.37453464  0.10396220  0.14642831     0.40600
H147        H  0.38504076  0.17472699  0.13777879     0.35500
C148        C  0.23864391  0.25397634  0.20072710    -0.26200
C149        C  0.26005998  0.26495155  0.15120990    -0.14300
C150        C  0.27539071  0.31911552  0.13773130     0.36400
C151        C  0.26769954  0.36183586  0.17222706    -0.25600
C152        C  0.24595857  0.35078741  0.22129875    -0.14900
C153        C  0.23206998  0.29531903  0.23638285     0.37400
N154        N  0.21130949  0.28035553  0.28826715    -0.89100
H155        H  0.22701032  0.21253304  0.21256158     0.18600
H156        H  0.27855878  0.40414398  0.16032736     0.18600
N157        N  0.29914693  0.33026407  0.09011585    -0.88200
H158        H  0.21823574  0.24373503  0.31152504     0.35900
H159        H  0.19211910  0.26904189  0.27926786     0.41000
H160        H  0.31512405  0.30158450  0.09797739     0.40600
H161        H  0.30771036  0.37238611  0.08566190     0.35500
C162        C  0.28870915  0.29689049  0.97813980    -0.26200
C163        C  0.27143001  0.25686181  0.02026368    -0.14300
C164        C  0.24229495  0.25077277  0.01947572     0.36400
C165        C  0.22906172  0.31049592  0.47739144    -0.25600
C166        C  0.24678062  0.34588514  0.43150206    -0.14900
C167        C  0.27683212  0.34222060  0.42514381     0.37400
N168        N  0.29665480  0.37439857  0.37816408    -0.89100
H169        H  0.31122959  0.30046843  0.97698544     0.18600
H170        H  0.20614124  0.31194148  0.48296645     0.18600
N171        N  0.22436206  0.20688998  0.05884075    -0.88200
H172        H  0.29559472  0.41878512  0.38055523     0.35900
H173        H  0.29134990  0.36712779  0.34127787     0.41000
H174        H  0.21587903  0.18005791  0.03636422     0.40600
H175        H  0.20739673  0.26767814  0.58587959     0.35500
C176        C  0.07026878  0.89859260  0.47094561    -0.26200
C177        C  0.05626431  0.91351795  0.52274223    -0.14300
C178        C  0.05461295  0.86728022  0.03326780     0.36400
C179        C  0.08013452  0.83734808  0.02952694    -0.25600
C180        C  0.10364085  0.85407890  0.98458999    -0.14900
C181        C  0.10061705  0.89790331  0.94001155     0.37400
N182        N  0.12462751  0.91585903  0.89413351    -0.89100
H183        H  0.06129853  0.91143784  0.43473011     0.18600
H184        H  0.08260663  0.80513418  0.06482951     0.18600
N185        N  0.05485349  0.91245568  0.62339997    -0.88200
H186        H  0.10044979  0.87335845  0.38071100     0.35900
H187        H  0.12969236  0.88061990  0.87276358     0.41000
H188        H  0.02810587  0.89042579  0.10155846     0.40600
H189        H  0.01414867  0.83995179  0.07237219     0.35500
C190        C  0.15457491  0.74889159  0.14281776    -0.26200
C191        C  0.16935376  0.75528507  0.08639337    -0.13200
C192        C  0.19436000  0.72444192  0.07117812     0.36400
C193        C  0.20392796  0.68665655  0.11232306    -0.25600
C194        C  0.18936226  0.68058986  0.16867041    -0.14900
C195        C  0.16441365  0.71155344  0.18441968     0.37400
N196        N  0.14944326  0.70529224  0.24224411    -0.89100
H197        H  0.13554728  0.77355705  0.15427762     0.18600
H198        H  0.22336044  0.66327077  0.10056431     0.18600
N199        N  0.21087040  0.73240337  0.01469403    -0.88200
H200        H  0.14184582  0.66208822  0.25498397     0.35900
H201        H  0.13159698  0.73150532  0.24666161     0.41000
H202        H  0.19845212  0.72007737  0.98900391     0.40600
H203        H  0.21636413  0.77669595  0.00180190     0.35500
C204        C  0.15401231  0.64062295  0.47314513    -0.26200
C205        C  0.17067028  0.65687694  0.41855004    -0.14300
C206        C  0.17573766  0.71696312  0.39679756     0.36400
C207        C  0.16607692  0.75857694  0.43096831    -0.25600
C208        C  0.15068155  0.74244341  0.48666017    -0.14900
C209        C  0.14323890  0.68294110  0.50658460     0.37400
N210        N  0.12458653  0.66513679  0.56029306    -0.89100
H211        H  0.14977170  0.59482409  0.49034606     0.18600
H212        H  0.17195998  0.80401666  0.41476391     0.18600
N213        N  0.19204687  0.73721842  0.34122507    -0.88200
H214        H  0.13492916  0.63385545  0.58327129     0.35900
H215        H  0.11095700  0.63727878  0.07911845     0.41000
H216        H  0.18198736  0.72214306  0.31308954     0.40600
H217        H  0.21240028  0.72023813  0.33713141     0.35500
C218        C  0.36720852  0.81517039  0.05516184    -0.26200
C219        C  0.35780620  0.80176478  0.51555080    -0.14300
C220        C  0.37730354  0.81708872  0.46329594     0.36400
C221        C  0.40222975  0.84942685  0.46007122    -0.25600
C222        C  0.40814900  0.86519848  0.50836842    -0.14900
C223        C  0.39093272  0.84169396  0.56128450     0.37400
N224        N  0.37285844  0.89760842  0.10255195    -0.89100
H225        H  0.34443483  0.82073964  0.06577332     0.18600
H226        H  0.41567908  0.86677836  0.41946684     0.18600
N227        N  0.37022963  0.80450571  0.41319791    -0.88200
H228        H  0.35773071  0.92071563  0.08416956     0.35900
H229        H  0.36220301  0.87485102  0.14153507     0.41000
H230        H  0.36892202  0.75916610  0.41656290     0.40600
H231        H  0.38655941  0.81939360  0.37808372     0.35500
C232        C  0.30526915  0.58633862  0.08915089    -0.26200
C233        C  0.28646202  0.61332024  0.12906251    -0.14300
C234        C  0.28926847  0.67436109  0.12546953     0.36400
C235        C  0.30905365  0.70733299  0.08082369    -0.25600
C236        C  0.32712588  0.68089593  0.03989340    -0.14900
C237        C  0.32611510  0.61911104  0.04583650     0.37400
N238        N  0.34573977  0.58844431  0.00848598    -0.89100
H239        H  0.30387906  0.53945380  0.09174795     0.18600
H240        H  0.30889839  0.75432438  0.07617751     0.18600
N241        N  0.27082496  0.70384928  0.16527419    -0.88200
H242        H  0.35715175  0.56092103  0.03271997     0.35900
H243        H  0.36090668  0.61710895  0.98041478     0.41000
H244        H  0.25927942  0.73387535  0.14358895     0.40600
H245        H  0.28355023  0.72717694  0.18351035     0.35500
C246        C  0.30073421  0.71673565  0.39523356    -0.26200
C247        C  0.28863538  0.70504798  0.45321962    -0.14300
C248        C  0.26880998  0.65834928  0.47494624     0.36400
C249        C  0.26217786  0.62325389  0.43872800    -0.25600
C250        C  0.27312012  0.63705179  0.38064905    -0.14900
C251        C  0.29242142  0.68441161  0.35869479     0.37400
N252        N  0.30329679  0.70124058  0.29959393    -0.89100
H253        H  0.31579306  0.75303601  0.37799824     0.18600
H254        H  0.24687144  0.58739624  0.45582684     0.18600
N255        N  0.27819142  0.73275428  0.97698972    -0.88200
H256        H  0.28608176  0.71182032  0.28121552     0.35900
H257        H  0.31325064  0.66541668  0.28369113     0.41000
H258        H  0.26420441  0.70994493  0.01234687     0.40600
H259        H  0.26720334  0.76588833  0.95769728     0.35500
N260        N  0.31707102  0.73619314  0.51610541    -0.03400
C261        C  0.32772771  0.78995668  0.51617470    -0.00800
C262        C  0.37145074  0.78437436  0.92543770    -0.23600
C263        C  0.35555407  0.75793912  0.89709166    -0.23900
C264        C  0.33805674  0.71743510  0.93655759    -0.00900
H265        H  0.38778800  0.81805855  0.90721433     0.12900
H266        H  0.35638353  0.76752642  0.85261979     0.13000
N267        N  0.14695517  0.78573094  0.52343960    -0.03400
C268        C  0.13845856  0.84058782  0.50701728    -0.00800
C269        C  0.15552924  0.88166316  0.51955088    -0.23600
C270        C  0.17342349  0.85189200  0.54869020    -0.23900
C271        C  0.16771572  0.79357101  0.55073830    -0.00900
H272        H  0.15171060  0.92787340  0.51719747     0.12900
H273        H  0.18664312  0.87080235  0.57139351     0.13000
N274        N  0.28284734  0.23650381  0.55350872    -0.03400
C275        C  0.29767521  0.18916600  0.53962937    -0.00800
C276        C  0.28971080  0.14275178  0.58331898    -0.23600
C277        C  0.27341427  0.16470439  0.62778104    -0.23900
C278        C  0.27045298  0.22320767  0.60901055    -0.00900
H279        H  0.30009019  0.10123941  0.58706457     0.12900
H280        H  0.26779698  0.14204395  0.67058591     0.13000
N281        N  0.01060393  0.05100484  0.00287083    -0.36500
N282        N  0.48044270  0.94746744  0.03426124    -0.57000
N283        N  0.43217492  0.01849003  0.02467739    -0.36500
N284        N  0.46155860  0.12434484  0.50443147    -0.57000
C285        C  0.02906625  0.00722969  0.00803554     0.27100
C286        C  0.02409518  0.10268354  0.51075093     0.27100
C287        C  0.42335866  0.96579881  0.01726168     0.27100
C288        C  0.41607126  0.05919782  0.00175376     0.27100
C289        C  0.00111464  0.92710750  0.98741055     0.35700
C290        C  0.45983260  0.90533588  0.05214393     0.35700
C291        C  0.48074292  0.16507386  0.50746956     0.35700
C292        C  0.43828395  0.15295761  0.49417362     0.35700
C293        C  0.05141960  0.02648996  0.02764519    -0.21800
C294        C  0.05336623  0.09908199  0.49314458    -0.21800
C295        C  0.40206338  0.97334364  0.98779465    -0.21800
C296        C  0.39708577  0.03194174  0.97898535    -0.21800
C297        C  0.99841522  0.87330460  0.97165265    -0.22800
C298        C  0.47088526  0.85427533  0.07499420    -0.22800
C299        C  0.46938612  0.22000017  0.49966781    -0.22800
C300        C  0.44281084  0.21243768  0.48992885    -0.22800
C301        C  0.02662184  0.95066245  0.99460819    -0.18200
C302        C  0.00960743  0.15462197  0.52047449    -0.18200
C303        C  0.41184968  0.12577132  0.49586556    -0.18200
C304        C  0.43258321  0.91098587  0.04024502    -0.18200
H305        H  0.06974322  0.00220580  0.03557412     0.14700
H306        H  0.06894167  0.13477828  0.48164838     0.14700
H307        H  0.39069508  0.93998147  0.97507634     0.14700
H308        H  0.38094425  0.05139046  0.95863091     0.14700
H309        H  0.01515297  0.84329937  0.95986426     0.13000
H310        H  0.45982969  0.81275158  0.09223104     0.13000
H311        H  0.47893905  0.26127511  0.50142870     0.13000
H312        H  0.42796578  0.24663157  0.48332767     0.13000
H313        H  0.49288956  0.04335965  0.04215609     0.26300
H314        H  0.44534122  0.02545722  0.05098966     0.26300
N315        N  0.07862744  0.35413339  0.62093026    -0.03400
C316        C  0.05321470  0.32721917  0.62504505    -0.00800
C317        C  0.03570758  0.32957354  0.67722369    -0.23600
C318        C  0.05085580  0.35872978  0.70567763    -0.23900
C319        C  0.07723374  0.37320512  0.67011067    -0.00900
H320        H  0.01500428  0.30820794  0.69441332     0.12900
H321        H  0.04400060  0.36545210  0.74874198     0.13000
O322        O  0.19885492  0.56969961  0.92318567    -0.80000
O323        O  0.19851553  0.46117912  0.71943306    -0.80000
O324        O  0.21411425  0.65196355  0.75318943    -0.80000
O325        O  0.16022776  0.45562343  0.90441737    -0.80000
O326        O  0.20067701  0.57376861  0.72495947    -0.80100
O327        O  0.18932431  0.45200859  0.95991889    -0.80000
O328        O  0.16485065  0.45965497  0.79534142    -0.80000
O329        O  0.17920573  0.59269161  0.85028828    -0.80100
C330        C  0.18059555  0.59826650  0.89971524     1.09700
C331        C  0.17240142  0.45396235  0.74463503     1.09600
C332        C  0.20324984  0.62977053  0.71959056     1.09700
C333        C  0.16431094  0.44694288  0.95284728     1.09600
O334        O  0.24486014  0.42884837  0.89580078    -0.80000
O335        O  0.24974304  0.52869448  0.67559118    -0.80100
O336        O  0.23641353  0.62023988  0.84133615    -0.80000
O337        O  0.21091188  0.37929878  0.79096016    -0.80000
O338        O  0.24964640  0.43510661  0.75884108    -0.80100
O339        O  0.25768003  0.54163391  0.86469151    -0.80000
O340        O  0.20751835  0.37251673  0.90298972    -0.80000
O341        O  0.25553286  0.57364831  0.74456627    -0.80100
Co342      Co  0.22259365  0.49819802  0.90614601     1.51500
Co343      Co  0.22643475  0.50503939  0.74877823     1.51700
Co344      Co  0.21526451  0.57850518  0.79800544     1.51600
Co345      Co  0.18670705  0.42128650  0.84783218     1.51500
O346        O  0.21132779  0.49418298  0.83299616    -1.42000
C347        C  0.23279900  0.37932026  0.90992332     1.09600
C348        C  0.26333074  0.56594501  0.69279127     1.09700
C349        C  0.25665760  0.59586838  0.85911803     1.09600
C350        C  0.23656029  0.38688446  0.76315810     1.09600
C351        C  0.11836594  0.44430998  0.65669557    -0.26200
C352        C  0.10216462  0.39468464  0.68764181    -0.14300
C353        C  0.11072373  0.36330779  0.73425748     0.36400
C354        C  0.13479057  0.38203894  0.74963230    -0.25600
C355        C  0.15070160  0.43189665  0.71951685    -0.14900
C356        C  0.14271493  0.46292895  0.67223633     0.37400
N357        N  0.15845077  0.51449313  0.64163844    -0.89100
H358        H  0.11194881  0.46902564  0.62089468     0.18600
H359        H  0.14077572  0.35802940  0.78631299     0.18600
N360        N  0.09506537  0.31203756  0.76607226    -0.88200
H361        H  0.14451188  0.54917459  0.64319521     0.35900
H362        H  0.16529894  0.50899600  0.59978339     0.41000
H363        H  0.08819532  0.31862759  0.80761158     0.40600
H364        H  0.10893404  0.27717230  0.76533367     0.35500
C365        C  0.14531016  0.37346858  0.03675201    -0.26200
C366        C  0.14052620  0.42230720  0.99898362    -0.14300
C367        C  0.11543342  0.45035925  0.49102186     0.36400
C368        C  0.09394430  0.41885469  0.53231047    -0.25600
C369        C  0.10028474  0.37290337  0.57109738    -0.14900
C370        C  0.12895981  0.35711487  0.56761030     0.37400
N371        N  0.13675656  0.30938296  0.60533808    -0.89100
H372        H  0.16668109  0.35735917  0.03402809     0.18600
H373        H  0.07207206  0.43214638  0.53607840     0.18600
N374        N  0.10714058  0.49722776  0.45330052    -0.88200
H375        H  0.13744559  0.26318626  0.09260722     0.35900
H376        H  0.11867766  0.28778817  0.63221356     0.41000
H377        H  0.11085305  0.48467278  0.92434745     0.40600
H378        H  0.11828798  0.53529107  0.45403160     0.35500
C379        C  0.03963984  0.30110816  0.53981255    -0.26200
C380        C  0.04795973  0.28380191  0.59049554    -0.14300
C381        C  0.04707541  0.22402639  0.61320715     0.36400
C382        C  0.03535131  0.18342675  0.58807259    -0.25600
C383        C  0.02516235  0.20055188  0.53939493    -0.14900
C384        C  0.02889420  0.26000636  0.51315808     0.37400
N385        N  0.04211953  0.26079385  0.95884977    -0.89100
H386        H  0.04072684  0.34689771  0.52164768     0.18600
H387        H  0.03326461  0.13802771  0.60777279     0.18600
N388        N  0.05704250  0.20511327  0.66336581    -0.88200
H389        H  0.03144062  0.29846635  0.94718790     0.35900
H390        H  0.03477515  0.22754575  0.94165211     0.41000
H391        H  0.07893246  0.21464661  0.65392914     0.40600
H392        H  0.05459046  0.15987219  0.67523292     0.35500
C393        C  0.37267345  0.15880417  0.97352715    -0.26200
C394        C  0.38603033  0.16165405  0.49653387    -0.14300
C395        C  0.37385611  0.18645000  0.54411331     0.36400
C396        C  0.34583124  0.20524893  0.55168126    -0.25600
C397        C  0.32875546  0.19489715  0.51513843    -0.14900
C398        C  0.34157841  0.17515285  0.46469322     0.37400
N399        N  0.32907522  0.17340772  0.93903045    -0.89100
H400        H  0.38389485  0.15535699  0.93116539     0.18600
H401        H  0.33616492  0.22054711  0.59046378     0.18600
N402        N  0.38879521  0.18685336  0.58769468    -0.88200
H403        H  0.33728975  0.21066361  0.91026829     0.35900
H404        H  0.30724634  0.17916884  0.95244190     0.41000
H405        H  0.37674349  0.16223714  0.62448466     0.40600
H406        H  0.39013492  0.22985502  0.59439661     0.35500
C407        C  0.24326452  0.24856055  0.69963629    -0.26200
C408        C  0.26209213  0.26662407  0.64751083    -0.14300
C409        C  0.27477234  0.32326692  0.63620573     0.36400
C410        C  0.26780018  0.36066356  0.67618396    -0.25600
C411        C  0.24838961  0.34282510  0.72769648    -0.14900
C412        C  0.23646596  0.28561546  0.73957944     0.37400
N413        N  0.21708401  0.26492621  0.79210997    -0.89100
H414        H  0.23345793  0.20527052  0.70962810     0.18600
H415        H  0.27686590  0.40463881  0.66584266     0.18600
N416        N  0.29502066  0.34307591  0.58467320    -0.88200
H417        H  0.22550614  0.22772156  0.81155134     0.35900
H418        H  0.19782356  0.25278156  0.78393398     0.41000
H419        H  0.31408678  0.35430626  0.59414180     0.40600
H420        H  0.28728739  0.38072550  0.56443426     0.35500
C421        C  0.28806371  0.30592598  0.46536015    -0.26200
C422        C  0.27030071  0.27378461  0.51316610    -0.14300
C423        C  0.24041951  0.27505427  0.51823234     0.36400
C424        C  0.23057606  0.28826280  0.98045938    -0.25600
C425        C  0.24725584  0.33237441  0.94159709    -0.14900
C426        C  0.27711648  0.33478982  0.93934508     0.37400
N427        N  0.29638101  0.37533429  0.89852354    -0.89100
H428        H  0.31096632  0.30390764  0.45999118     0.18600
H429        H  0.20794516  0.28455874  0.98263929     0.18600
N430        N  0.22142545  0.24000497  0.56447436    -0.88200
H431        H  0.29231080  0.41760172  0.90675232     0.35900
H432        H  0.29346714  0.37220797  0.85868352     0.41000
H433        H  0.20949052  0.21247032  0.54854251     0.40600
H434        H  0.20748597  0.22752552  0.08207209     0.35500
C435        C  0.07466273  0.92660465  0.94281352    -0.26200
C436        C  0.05203695  0.91332291  0.98999667    -0.14300
C437        C  0.06771948  0.89670315  0.57007645     0.36400
C438        C  0.09302009  0.86636533  0.56467684    -0.25600
C439        C  0.10813552  0.85479648  0.51226172    -0.14900
C440        C  0.09643273  0.86987752  0.46508975     0.37400
N441        N  0.11171996  0.85843121  0.41130687    -0.89100
H442        H  0.07253611  0.96164366  0.90955440     0.18600
H443        H  0.10221378  0.85578480  0.60091766     0.18600
N444        N  0.03251103  0.85299573  0.08321450    -0.88200
H445        H  0.11917923  0.94980866  0.86560953     0.35900
H446        H  0.11264797  0.81317398  0.41374431     0.41000
H447        H  0.05366644  0.95785364  0.61842980     0.40600
H448        H  0.03416080  0.89455219  0.63671438     0.35500
C449        C  0.15683919  0.71408042  0.63276359    -0.26200
C450        C  0.17739085  0.74773602  0.59037959    -0.13200
C451        C  0.20650221  0.74156325  0.59071031     0.36400
C452        C  0.21433948  0.70247856  0.63330874    -0.25600
C453        C  0.19378835  0.66801803  0.67472478    -0.14900
C454        C  0.16482494  0.67264927  0.67393050     0.37400
N455        N  0.14372148  0.63629790  0.71544895    -0.89100
H456        H  0.13444193  0.72124571  0.63460523     0.18600
H457        H  0.23669282  0.69863374  0.63383608     0.18600
N458        N  0.22855049  0.77348812  0.54791350    -0.88200
H459        H  0.12336911  0.64474329  0.70844859     0.35900
H460        H  0.14373455  0.64746786  0.75443879     0.41000
H461        H  0.22589941  0.76645470  0.50888108     0.40600
H462        H  0.22687353  0.81789266  0.54975016     0.35500
C463        C  0.15198437  0.63399811  0.98567946    -0.26200
C464        C  0.16394436  0.64450673  0.92757592    -0.14300
C465        C  0.16291529  0.70200409  0.89819845     0.36400
C466        C  0.15228646  0.74724129  0.92733569    -0.25600
C467        C  0.14254225  0.73777810  0.98585300    -0.14900
C468        C  0.14068172  0.67975811  0.01456523     0.37400
N469        N  0.12779559  0.66734897  0.07318976    -0.89100
H470        H  0.15203182  0.59036632  0.00903642     0.18600
H471        H  0.15405782  0.79130276  0.90434059     0.18600
N472        N  0.17492404  0.71743330  0.83940379    -0.88200
H473        H  0.14289814  0.64748650  0.09369169     0.35900
H474        H  0.10660446  0.64463389  0.55427523     0.41000
H475        H  0.16440107  0.69327039  0.81790578     0.40600
H476        H  0.19652674  0.70764300  0.83186260     0.35500
C477        C  0.36548772  0.81097944  0.56454394    -0.26200
C478        C  0.37879560  0.77357567  0.02200349    -0.14300
C479        C  0.40870058  0.76777628  0.00862700     0.36400
C480        C  0.42619744  0.81165225  0.01671410    -0.25600
C481        C  0.41455383  0.85762907  0.04407733    -0.14900
C482        C  0.38500314  0.85567629  0.06827409     0.37400
N483        N  0.39789847  0.85400198  0.61130094    -0.89100
H484        H  0.35078961  0.79877798  0.60485045     0.18600
H485        H  0.44884840  0.81139829  0.99843684     0.18600
N486        N  0.42180915  0.72168778  0.98048630    -0.88200
H487        H  0.38101449  0.87628575  0.63250089     0.35900
H488        H  0.39954871  0.81424586  0.63681075     0.41000
H489        H  0.40640517  0.69139174  0.97838954     0.40600
H490        H  0.43440765  0.69906893  0.00559131     0.35500
C491        C  0.29999690  0.58819701  0.60164037    -0.26200
C492        C  0.28636384  0.60403752  0.65331221    -0.14300
C493        C  0.29119817  0.66111507  0.66244902     0.36400
C494        C  0.30474246  0.70322520  0.61746934    -0.25600
C495        C  0.31435968  0.68955850  0.56344469    -0.14900
C496        C  0.31461144  0.63025686  0.55693174     0.37400
N497        N  0.32772330  0.61220038  0.50464449    -0.89100
H498        H  0.29765922  0.54391510  0.59462260     0.18600
H499        H  0.30494225  0.74816723  0.62376931     0.18600
N500        N  0.28016184  0.67827974  0.71591344    -0.88200
H501        H  0.34338666  0.58260743  0.51231222     0.35900
H502        H  0.33848053  0.64745291  0.47618471     0.41000
H503        H  0.26627245  0.71248995  0.71076007     0.40600
H504        H  0.29719971  0.69398736  0.72941565     0.35500
C505        C  0.32610844  0.64485398  0.88318875    -0.26200
C506        C  0.31673964  0.68244157  0.92181949    -0.14300
C507        C  0.28761533  0.69309261  0.93866417     0.36400
C508        C  0.26801701  0.66600815  0.91632309    -0.25600
C509        C  0.27746815  0.62828439  0.87765283    -0.14900
C510        C  0.30661638  0.61716820  0.86145117     0.37400
N511        N  0.31644948  0.57874965  0.82195802    -0.89100
H512        H  0.34868456  0.63772217  0.86926823     0.18600
H513        H  0.24546916  0.67372873  0.92965078     0.18600
N514        N  0.25405041  0.64833497  0.53266152    -0.88200
H515        H  0.32744109  0.54528679  0.84084666     0.35900
H516        H  0.33081158  0.60219953  0.78749977     0.41000
H517        H  0.25698621  0.60507959  0.54929205     0.40600
H518        H  0.23229006  0.65197128  0.53399331     0.35500
N519        N  0.82092661  0.73172838  0.00410086    -0.03400
C520        C  0.83139356  0.78630543  0.00181911    -0.00800
C521        C  0.86847563  0.78811735  0.43745657    -0.23600
C522        C  0.85400369  0.76358081  0.40519121    -0.23900
C523        C  0.83728988  0.71895615  0.44061489    -0.00900
H524        H  0.88405144  0.82376133  0.42293875     0.12900
H525        H  0.85508624  0.77741826  0.36099160     0.13000
N526        N  0.64689159  0.78499536  0.01648216    -0.03400
C527        C  0.63936486  0.83997171  0.99770203    -0.00800
C528        C  0.65814901  0.88070746  0.00574597    -0.23600
C529        C  0.67617856  0.85088279  0.03469547    -0.23900
C530        C  0.66840304  0.79289712  0.04167969    -0.00900
H531        H  0.65565872  0.92746989  0.00047598     0.12900
H532        H  0.69104368  0.86982503  0.05399166     0.13000
N533        N  0.78251511  0.23813043  0.05920278    -0.03400
C534        C  0.79856053  0.19155198  0.04810464    -0.00800
C535        C  0.79211840  0.14741904  0.09426324    -0.23600
C536        C  0.77436165  0.17006368  0.13655188    -0.23900
C537        C  0.76960100  0.22674875  0.11448400    -0.00900
H538        H  0.80387205  0.10789276  0.10045005     0.12900
H539        H  0.76915288  0.15014418  0.18028018     0.13000
N540        N  0.51073010  0.05174294  0.49963612    -0.36500
N541        N  0.97882350  0.94127623  0.53513604    -0.57000
N542        N  0.92975733  0.01060116  0.52784353    -0.36500
N543        N  0.96152518  0.12538641  0.00559058    -0.57000
C544        C  0.52904497  0.00772869  0.50463485     0.27100
C545        C  0.52666607  0.10662911  0.01351342     0.27100
C546        C  0.92024237  0.95672165  0.52492935     0.27100
C547        C  0.91267685  0.04993972  0.50593666     0.27100
C548        C  0.50196072  0.92871512  0.47974416     0.35700
C549        C  0.95861450  0.89857250  0.55574398     0.35700
C550        C  0.98124256  0.16561704  0.00731925     0.35700
C551        C  0.93881304  0.15480872  0.99325215     0.35700
C552        C  0.55084887  0.02584093  0.52652347    -0.21800
C553        C  0.55601445  0.10200568  0.99921634    -0.21800
C554        C  0.89732952  0.96210009  0.49964531    -0.21800
C555        C  0.89218832  0.02045953  0.48882216    -0.21800
C556        C  0.49974134  0.87580432  0.46181816    -0.22800
C557        C  0.97049585  0.84859094  0.57861860    -0.22800
C558        C  0.97086876  0.22105170  0.99633054    -0.22800
C559        C  0.94436874  0.21425550  0.98586110    -0.22800
C560        C  0.52714171  0.95219710  0.48850966    -0.18200
C561        C  0.51224936  0.15880100  0.02273734    -0.18200
C562        C  0.91192834  0.12860657  0.99644521    -0.18200
C563        C  0.93055949  0.90280701  0.54775231    -0.18200
H564        H  0.56896484  0.00112250  0.53495271     0.14700
H565        H  0.57183916  0.13705844  0.99025915     0.14700
H566        H  0.88510554  0.92757282  0.49067409     0.14700
H567        H  0.87494209  0.03830978  0.47087871     0.14700
H568        H  0.51684532  0.84729378  0.44799791     0.13000
H569        H  0.95987533  0.80711115  0.59808225     0.13000
H570        H  0.98114549  0.26219508  0.99609597     0.13000
H571        H  0.93021094  0.24905726  0.97680837     0.13000
H572        H  0.99099906  0.03823788  0.54423236     0.26300
H573        H  0.94439162  0.01956117  0.55049447     0.26300
N574        N  0.57705465  0.36087616  0.12503557    -0.03400
C575        C  0.55183625  0.33286425  0.13033520    -0.00800
C576        C  0.53455554  0.33559836  0.18270976    -0.23600
C577        C  0.54987821  0.36534865  0.21036945    -0.23900
C578        C  0.57600867  0.38005852  0.17396405    -0.00900
H579        H  0.51404544  0.31366384  0.20073691     0.12900
H580        H  0.54338961  0.37202910  0.25350566     0.13000
O581        O  0.69827048  0.57474502  0.42259206    -0.80000
O582        O  0.69789666  0.46930686  0.21800466    -0.80000
O583        O  0.71261692  0.65985229  0.25236272    -0.80000
O584        O  0.65918812  0.46325770  0.40277875    -0.80000
O585        O  0.70024005  0.58130535  0.22318743    -0.80100
O586        O  0.68823893  0.45623522  0.45850114    -0.80000
O587        O  0.66438920  0.47129069  0.29320361    -0.80000
O588        O  0.67870447  0.59838692  0.34959275    -0.80100
C589        C  0.67989045  0.60315720  0.39926870     1.09700
C590        C  0.67176262  0.46344251  0.24322057     1.09600
C591        C  0.70217813  0.63730559  0.21830815     1.09700
C592        C  0.66318065  0.45176879  0.45123599     1.09600
O593        O  0.74393034  0.43319176  0.39408186    -0.80000
O594        O  0.74897231  0.53554727  0.17357822    -0.80100
O595        O  0.73626547  0.62586821  0.34030339    -0.80000
O596        O  0.70990321  0.38876650  0.28795421    -0.80000
O597        O  0.74921071  0.44314796  0.25754118    -0.80100
O598        O  0.75711313  0.54645613  0.36410285    -0.80000
O599        O  0.70592325  0.37934325  0.39867096    -0.80000
O600        O  0.75483608  0.58303016  0.24093668    -0.80100
Co601      Co  0.72185868  0.50309413  0.40509673     1.51500
Co602      Co  0.72604734  0.51283123  0.24707979     1.51700
Co603      Co  0.71464506  0.58589515  0.29639237     1.51600
Co604      Co  0.68559277  0.43015057  0.34503975     1.51500
O605        O  0.71094193  0.50145066  0.33117165    -1.42000
C606        C  0.73139727  0.38403494  0.40497056     1.09600
C607        C  0.76264414  0.57349880  0.18958881     1.09700
C608        C  0.75645978  0.60078978  0.35801373     1.09600
C609        C  0.73590453  0.39522184  0.26198425     1.09600
C610        C  0.61738244  0.45035893  0.15782146    -0.26200
C611        C  0.60115532  0.40155769  0.19034216    -0.14300
C612        C  0.61014725  0.37067650  0.23668595     0.36400
C613        C  0.63417833  0.39049977  0.25137289    -0.25600
C614        C  0.65002974  0.43977060  0.21963638    -0.14900
C615        C  0.64211431  0.46900066  0.17171953     0.37400
N616        N  0.65849363  0.51866394  0.13855635    -0.89100
H617        H  0.61081795  0.47417251  0.12179915     0.18600
H618        H  0.64037421  0.36753935  0.28826678     0.18600
N619        N  0.59523683  0.31848678  0.26831229    -0.88200
H620        H  0.64516071  0.55431236  0.13883314     0.35900
H621        H  0.66485784  0.51075721  0.09735514     0.41000
H622        H  0.58852786  0.32433194  0.31010964     0.40600
H623        H  0.60957119  0.28444081  0.26666610     0.35500
C624        C  0.64304996  0.37324195  0.53112760    -0.26200
C625        C  0.63914741  0.42552613  0.49662391    -0.14300
C626        C  0.61549362  0.45018379  0.99163986     0.36400
C627        C  0.59357571  0.42285473  0.03493483    -0.25600
C628        C  0.59899989  0.37722365  0.07504030    -0.14900
C629        C  0.62718528  0.35801307  0.07142569     0.37400
N630        N  0.63393947  0.31027222  0.11047739    -0.89100
H631        H  0.66400083  0.35477698  0.52656225     0.18600
H632        H  0.57211977  0.43870890  0.03867921     0.18600
N633        N  0.60809003  0.49624524  0.95195812    -0.88200
H634        H  0.63213902  0.26019727  0.57842466     0.35900
H635        H  0.61551362  0.29160015  0.13857715     0.41000
H636        H  0.61005448  0.49503509  0.42568313     0.40600
H637        H  0.62060895  0.53334643  0.94973987     0.35500
C638        C  0.54227843  0.30416186  0.04273193    -0.26200
C639        C  0.54700352  0.28824845  0.09680641    -0.14300
C640        C  0.54431918  0.22901499  0.12194830     0.36400
C641        C  0.53424602  0.18780992  0.09518432    -0.25600
C642        C  0.52740802  0.20392456  0.04297363    -0.14900
C643        C  0.53297445  0.26240705  0.01497682     0.37400
N644        N  0.53941588  0.26353799  0.45710412    -0.89100
H645        H  0.54494510  0.34938966  0.02268144     0.18600
H646        H  0.53066108  0.14295376  0.11621439     0.18600
N647        N  0.55097462  0.21128521  0.17568814    -0.88200
H648        H  0.52743881  0.29955693  0.44644581     0.35900
H649        H  0.53297009  0.22922869  0.44005659     0.41000
H650        H  0.57275175  0.21982978  0.17082082     0.40600
H651        H  0.54768922  0.16634520  0.18865074     0.35500
C652        C  0.87212827  0.15008416  0.46631780    -0.26200
C653        C  0.88623846  0.16534907  0.99699753    -0.14300
C654        C  0.87567325  0.19489932  0.04226588     0.36400
C655        C  0.84754317  0.21338633  0.05189194    -0.25600
C656        C  0.82906620  0.19922975  0.01944769    -0.14900
C657        C  0.84041956  0.17677591  0.96989724     0.37400
N658        N  0.83033225  0.16510946  0.42578057    -0.89100
H659        H  0.88411136  0.14210387  0.42581073     0.18600
H660        H  0.83900250  0.23151907  0.08963370     0.18600
N661        N  0.89240025  0.20080301  0.08192584    -0.88200
H662        H  0.84018510  0.19965754  0.39512538     0.35900
H663        H  0.80872257  0.17436589  0.43623232     0.41000
H664        H  0.88144077  0.17954476  0.12135399     0.40600
H665        H  0.89418368  0.24513700  0.08386988     0.35500
C666        C  0.74130631  0.25584334  0.20188715    -0.26200
C667        C  0.76102340  0.27188548  0.15060104    -0.14300
C668        C  0.77523881  0.32700001  0.13935295     0.36400
C669        C  0.76836470  0.36569822  0.17807276    -0.25600
C670        C  0.74795299  0.34994952  0.22859925    -0.14900
C671        C  0.73515323  0.29354545  0.24118299     0.37400
N672        N  0.71574687  0.27425145  0.29402663    -0.89100
H673        H  0.73078747  0.21320377  0.21206928     0.18600
H674        H  0.77841349  0.40882041  0.16764796     0.18600
N675        N  0.79715742  0.34348159  0.08955411    -0.88200
H676        H  0.72379189  0.23675500  0.31380751     0.35900
H677        H  0.69623652  0.26300465  0.28632339     0.41000
H678        H  0.81595950  0.35198863  0.10139141     0.40600
H679        H  0.79132955  0.38213930  0.06739995     0.35500
C680        C  0.78814815  0.31001321  0.97284972    -0.26200
C681        C  0.77039027  0.27313618  0.01700849    -0.14300
C682        C  0.74121132  0.26760204  0.01682797     0.36400
C683        C  0.72773371  0.29702581  0.47848308    -0.25600
C684        C  0.74505303  0.33440596  0.43393388    -0.14900
C685        C  0.77511276  0.32859360  0.42420657     0.37400
N686        N  0.79417046  0.36077627  0.37604160    -0.89100
H687        H  0.81070715  0.31298659  0.97152926     0.18600
H688        H  0.70476462  0.29957577  0.48586245     0.18600
N689        N  0.72287915  0.22640609  0.05864070    -0.88200
H690        H  0.79320373  0.40516913  0.37842568     0.35900
H691        H  0.78770691  0.35378430  0.34018909     0.41000
H692        H  0.71428065  0.19745365  0.03833411     0.40600
H693        H  0.70701461  0.24886063  0.58531570     0.35500
C694        C  0.57629983  0.93024516  0.44060926    -0.26200
C695        C  0.55247105  0.91488220  0.48499797    -0.14300
C696        C  0.56944669  0.89565020  0.06754010     0.36400
C697        C  0.59485745  0.86548997  0.05917274    -0.25600
C698        C  0.60923624  0.85661777  0.00534436    -0.14900
C699        C  0.59696663  0.87516439  0.95946047     0.37400
N700        N  0.61155784  0.86652710  0.90425437    -0.89100
H701        H  0.57504504  0.96641387  0.40775500     0.18600
H702        H  0.60454327  0.85230316  0.09442242     0.18600
N703        N  0.53052439  0.85113175  0.57510333    -0.88200
H704        H  0.62263199  0.95665265  0.36911636     0.35900
H705        H  0.61252165  0.82158250  0.90440021     0.41000
H706        H  0.55563990  0.95266106  0.12060838     0.40600
H707        H  0.53643693  0.88911253  0.13565881     0.35500
C708        C  0.65638558  0.72528982  0.13216877    -0.26200
C709        C  0.67698210  0.74853000  0.08385921    -0.13200
C710        C  0.70574206  0.73398512  0.07966195     0.36400
C711        C  0.71341184  0.69711630  0.12402044    -0.25600
C712        C  0.69286821  0.67453211  0.17252212    -0.14900
C713        C  0.66412929  0.68795053  0.17636908     0.37400
N714        N  0.64293526  0.66464998  0.22543498    -0.89100
H715        H  0.63431624  0.73727895  0.13610795     0.18600
H716        H  0.73555599  0.68633127  0.12081307     0.18600
N717        N  0.72741922  0.75573041  0.03073382    -0.88200
H718        H  0.62789253  0.64085506  0.21306614     0.35900
H719        H  0.63262881  0.69957977  0.24241994     0.41000
H720        H  0.72153525  0.74438818  0.99579911     0.40600
H721        H  0.72868719  0.80114693  0.02593864     0.35500
C722        C  0.65059088  0.63678488  0.48579372    -0.26200
C723        C  0.66251441  0.64814707  0.42770491    -0.14300
C724        C  0.66037067  0.70538417  0.39866133     0.36400
C725        C  0.64970652  0.75011794  0.42835465    -0.25600
C726        C  0.64078410  0.74013010  0.48692764    -0.14900
C727        C  0.63889201  0.68191363  0.51509999     0.37400
N728        N  0.62563751  0.66872190  0.57353605    -0.89100
H729        H  0.65109202  0.59315341  0.50883622     0.18600
H730        H  0.65109591  0.79426821  0.40573016     0.18600
N731        N  0.67137168  0.72123639  0.33958724    -0.88200
H732        H  0.64038111  0.64755777  0.59420481     0.35900
H733        H  0.60707490  0.64317735  0.05474739     0.41000
H734        H  0.66081437  0.69605516  0.31892891     0.40600
H735        H  0.69312707  0.71306363  0.33074347     0.35500
C736        C  0.86519332  0.80948404  0.05761693    -0.26200
C737        C  0.87546137  0.76662302  0.53455968    -0.14300
C738        C  0.90516602  0.75875463  0.52107285     0.36400
C739        C  0.92339164  0.80179076  0.52836073    -0.25600
C740        C  0.91251293  0.84844622  0.55556319    -0.14900
C741        C  0.88327016  0.84655348  0.58226435     0.37400
N742        N  0.89232798  0.85710631  0.11128785    -0.89100
H743        H  0.84936020  0.79540860  0.09603310     0.18600
H744        H  0.94585006  0.80086289  0.50875318     0.18600
N745        N  0.91729389  0.71249211  0.49211285    -0.88200
H746        H  0.87386805  0.87694421  0.12994284     0.35900
H747        H  0.89418392  0.81786928  0.13741683     0.41000
H748        H  0.90127771  0.68347514  0.49009789     0.40600
H749        H  0.92975977  0.68850496  0.51660709     0.35500
C750        C  0.80139078  0.58953988  0.10073885    -0.26200
C751        C  0.78591546  0.61002351  0.14886474    -0.14300
C752        C  0.78936662  0.66924054  0.15277471     0.36400
C753        C  0.80380780  0.70804159  0.10586319    -0.25600
C754        C  0.81600734  0.68912653  0.05503286    -0.14900
C755        C  0.81700355  0.62841432  0.05416484     0.37400
N756        N  0.83170965  0.60548120  0.00546908    -0.89100
H757        H  0.79983840  0.54377195  0.09774795     0.18600
H758        H  0.80297278  0.75420816  0.10774631     0.18600
N759        N  0.77612193  0.69152956  0.20260238    -0.88200
H760        H  0.84719275  0.57769043  0.01747294     0.35900
H761        H  0.84277933  0.63884818  0.97498159     0.41000
H762        H  0.76221132  0.72406597  0.19223813     0.40600
H763        H  0.79203455  0.71078650  0.21667599     0.35500
C764        C  0.82599090  0.64874590  0.38368818    -0.26200
C765        C  0.81636681  0.68599891  0.42252768    -0.14300
C766        C  0.78721061  0.69640134  0.43901648     0.36400
C767        C  0.76785763  0.67016386  0.41555197    -0.25600
C768        C  0.77743186  0.63263054  0.37683995    -0.14900
C769        C  0.80661247  0.62088533  0.36165119     0.37400
N770        N  0.81657232  0.58123259  0.32343731    -0.89100
H771        H  0.84857657  0.64121298  0.37063520     0.18600
H772        H  0.74530651  0.67793699  0.42848160     0.18600
N773        N  0.75986777  0.64136830  0.02295554    -0.88200
H774        H  0.82711549  0.54787042  0.34361523     0.35900
H775        H  0.83138596  0.60365916  0.28909217     0.41000
H776        H  0.76292561  0.59796087  0.03890160     0.40600
H777        H  0.73794271  0.64487379  0.02640346     0.35500
N778        N  0.84106364  0.71409937  0.49363798    -0.03400
C779        C  0.86016167  0.75740615  0.49146795    -0.00800
C780        C  0.81682428  0.82781973  0.97368349    -0.23600
C781        C  0.79736709  0.79827131  0.95573363    -0.23900
C782        C  0.80072767  0.73968517  0.97346573    -0.00900
H783        H  0.82225034  0.87390320  0.96151484     0.12900
H784        H  0.78479055  0.81690330  0.92662007     0.13000
N785        N  0.64034856  0.78936509  0.51628658    -0.03400
C786        C  0.63175885  0.84378119  0.49887609    -0.00800
C787        C  0.64550565  0.88534655  0.51813825    -0.23600
C788        C  0.66297742  0.85614462  0.54888261    -0.23900
C789        C  0.65954008  0.79786290  0.54687658    -0.00900
H790        H  0.64089704  0.93125456  0.51539653     0.12900
H791        H  0.67516321  0.87480815  0.57366549     0.13000
N792        N  0.78221530  0.22254579  0.55208907    -0.03400
C793        C  0.79525049  0.17202738  0.54208002    -0.00800
C794        C  0.78321957  0.12791088  0.58596653    -0.23600
C795        C  0.76770502  0.15431150  0.62824358    -0.23900
C796        C  0.76876205  0.21322895  0.60723118    -0.00900
H797        H  0.79088347  0.08396425  0.59256533     0.12900
H798        H  0.75977137  0.13331806  0.67117094     0.13000
N799        N  0.51421196  0.05285982  0.02375656    -0.36500
N800        N  0.97530679  0.95086463  0.00065794    -0.57000
N801        N  0.92718713  0.02672238  0.99830987    -0.36500
N802        N  0.96380845  0.11960910  0.50801578    -0.57000
C803        C  0.53526313  0.01388243  0.01567537     0.27100
C804        C  0.52006204  0.09707443  0.51973951     0.27100
C805        C  0.91365183  0.97374285  0.01298549     0.27100
C806        C  0.90711428  0.06729364  0.00757967     0.27100
C807        C  0.50468474  0.92330141  0.04414452     0.35700
C808        C  0.95621439  0.91243465  0.99345674     0.35700
C809        C  0.98027419  0.16054876  0.51997965     0.35700
C810        C  0.93740139  0.14152810  0.51219138     0.35700
C811        C  0.56144986  0.04359732  0.99982818    -0.21800
C812        C  0.54514249  0.08188635  0.53624469    -0.21800
C813        C  0.88455347  0.98114962  0.03087550    -0.21800
C814        C  0.88049839  0.03983903  0.02803635    -0.21800
C815        C  0.49951979  0.86524615  0.06851348    -0.22800
C816        C  0.96987953  0.86365508  0.97620401    -0.22800
C817        C  0.96433271  0.20912655  0.53042861    -0.22800
C818        C  0.93747766  0.19774298  0.52393848    -0.22800
C819        C  0.53162223  0.95215814  0.02760597    -0.18200
C820        C  0.50728390  0.15253630  0.52175108    -0.18200
C821        C  0.91298101  0.11070261  0.50755697    -0.18200
C822        C  0.92648331  0.91944182  0.00597754    -0.18200
H823        H  0.58236805  0.02498312  0.99194932     0.14700
H824        H  0.55827237  0.10860593  0.55290596     0.14700
H825        H  0.86763577  0.94822044  0.04367656     0.14700
H826        H  0.86010608  0.05985013  0.03961786     0.14700
H827        H  0.51475671  0.83389189  0.08002085     0.13000
H828        H  0.96035332  0.82492801  0.96821861     0.13000
H829        H  0.97106756  0.24860394  0.54203214     0.13000
H830        H  0.91972542  0.22670591  0.52964059     0.13000
H831        H  0.99358373  0.05040503  0.98390134     0.26300
H832        H  0.94831161  0.03532603  0.97700001     0.26300
N833        N  0.57157028  0.35283780  0.62861145    -0.03400
C834        C  0.54587379  0.32526186  0.63678732    -0.00800
C835        C  0.52908992  0.33385695  0.68810183    -0.23600
C836        C  0.54531881  0.36565414  0.71240407    -0.23900
C837        C  0.57141534  0.37650670  0.67498824    -0.00900
H838        H  0.50791979  0.31564876  0.70757876     0.12900
H839        H  0.53926706  0.37684965  0.75402355     0.13000
O840        O  0.70516205  0.57630990  0.90748425    -0.80000
O841        O  0.69640132  0.46545898  0.70746951    -0.80000
O842        O  0.71196752  0.65801449  0.73975516    -0.80000
O843        O  0.66247445  0.46446201  0.89313218    -0.80000
O844        O  0.69970661  0.57881880  0.71071994    -0.80100
O845        O  0.69315010  0.46016760  0.94547422    -0.80000
O846        O  0.66479347  0.46749841  0.78527751    -0.80000
O847        O  0.68187553  0.59891157  0.84004411    -0.80100
C848        C  0.68585818  0.60480876  0.88774383     1.09700
C849        C  0.67067939  0.45975315  0.73516956     1.09600
C850        C  0.70043798  0.63486283  0.70754517     1.09700
C851        C  0.66754401  0.45607104  0.94083338     1.09600
O852        O  0.74714120  0.43302976  0.87544486    -0.80000
O853        O  0.74691783  0.53190316  0.65701146    -0.80100
O854        O  0.74066015  0.62436133  0.81940957    -0.80000
O855        O  0.71033694  0.38438936  0.77820346    -0.80000
O856        O  0.74908061  0.43934575  0.74045975    -0.80100
O857        O  0.76149921  0.54510358  0.84251767    -0.80000
O858        O  0.70844502  0.37918590  0.89029728    -0.80000
O859        O  0.75419192  0.58251683  0.72125239    -0.80100
Co860      Co  0.72666229  0.50360216  0.88815667     1.51500
Co861      Co  0.72591790  0.50980275  0.73227453     1.51700
Co862      Co  0.71579166  0.58471773  0.78177927     1.51600
Co863      Co  0.68745881  0.42832768  0.83565202     1.51500
O864        O  0.71312440  0.50026925  0.81695486    -1.42000
C865        C  0.73403677  0.38537303  0.89555803     1.09600
C866        C  0.76072552  0.57159243  0.67036794     1.09700
C867        C  0.76046094  0.59923457  0.83838776     1.09600
C868        C  0.73566973  0.39081415  0.74822343     1.09600
C869        C  0.61370892  0.44643289  0.65443426    -0.26200
C870        C  0.59731446  0.39870183  0.68889020    -0.14300
C871        C  0.60645350  0.37003388  0.73594751     0.36400
C872        C  0.63126604  0.38949580  0.74817188    -0.25600
C873        C  0.64756742  0.43707037  0.71410422    -0.14900
C874        C  0.63894991  0.46544248  0.66649767     0.37400
N875        N  0.65498295  0.51487020  0.63196731    -0.89100
H876        H  0.60671394  0.46976311  0.61878402     0.18600
H877        H  0.63768478  0.36759621  0.78521992     0.18600
N878        N  0.59067551  0.32064530  0.77135477    -0.88200
H879        H  0.64147167  0.55020458  0.63200828     0.35900
H880        H  0.66091841  0.50611797  0.59098779     0.41000
H881        H  0.58468113  0.33009270  0.81206874     0.40600
H882        H  0.60421378  0.28525267  0.77186516     0.35500
C883        C  0.64942244  0.38688982  0.02919613    -0.26200
C884        C  0.64401783  0.43290637  0.98901283    -0.14300
C885        C  0.61138982  0.44752517  0.50124709     0.36400
C886        C  0.58867854  0.41871314  0.54153790    -0.25600
C887        C  0.59274472  0.36795176  0.57742867    -0.14900
C888        C  0.62002382  0.34370670  0.57094603     0.37400
N889        N  0.62505232  0.29034915  0.60517473    -0.89100
H890        H  0.67096729  0.37193143  0.02674093     0.18600
H891        H  0.56791557  0.43819387  0.54769367     0.18600
N892        N  0.60580467  0.50059254  0.46759475    -0.88200
H893        H  0.64268520  0.27786029  0.08761429     0.35900
H894        H  0.60608592  0.27261489  0.63207019     0.41000
H895        H  0.61206763  0.48343215  0.91262713     0.40600
H896        H  0.61928533  0.53366472  0.47174048     0.35500
C897        C  0.54236657  0.29151112  0.54639942    -0.26200
C898        C  0.53890049  0.28001822  0.60494736    -0.14300
C899        C  0.52772825  0.22463731  0.63421179     0.36400
C900        C  0.51786945  0.18469831  0.60561881    -0.25600
C901        C  0.52024270  0.19670056  0.54758123    -0.14900
C902        C  0.53375025  0.25014088  0.51721383     0.37400
N903        N  0.52944369  0.28076002  0.95891519    -0.89100
H904        H  0.55141009  0.33310693  0.52309085     0.18600
H905        H  0.50824154  0.14343788  0.62887234     0.18600
N906        N  0.52668079  0.20876277  0.69309193    -0.88200
H907        H  0.51277029  0.30999107  0.96079645     0.35900
H908        H  0.52369952  0.24570259  0.94197368     0.41000
H909        H  0.54766862  0.20784536  0.69788799     0.40600
H910        H  0.51800009  0.16660104  0.70831547     0.35500
C911        C  0.86904768  0.16018427  0.95900347    -0.26200
C912        C  0.88501815  0.14058299  0.51248963    -0.14300
C913        C  0.86926835  0.15230811  0.56494849     0.36400
C914        C  0.84126348  0.17061772  0.56993491    -0.25600
C915        C  0.82704847  0.17150475  0.52626197    -0.14900
C916        C  0.84303487  0.16331133  0.47296752     0.37400
N917        N  0.82314651  0.16709873  0.93198413    -0.89100
H918        H  0.87712916  0.13827390  0.92354257     0.18600
H919        H  0.82944648  0.17834223  0.61068256     0.18600
N920        N  0.88013637  0.14326824  0.61499061    -0.88200
H921        H  0.83210951  0.19246380  0.89314705     0.35900
H922        H  0.80265452  0.18253410  0.94458167     0.41000
H923        H  0.90041839  0.12612282  0.60855146     0.40600
H924        H  0.86697262  0.11171588  0.64427793     0.35500
C925        C  0.74142882  0.24631990  0.69451504    -0.26200
C926        C  0.76094018  0.26003130  0.64249011    -0.14300
C927        C  0.77448547  0.31616660  0.62789493     0.36400
C928        C  0.76698851  0.35757007  0.66412356    -0.25600
C929        C  0.74703502  0.34377811  0.71564969    -0.14900
C930        C  0.73493939  0.28672155  0.73136183     0.37400
N931        N  0.71606135  0.26920217  0.78514312    -0.89100
H932        H  0.73102395  0.20364793  0.70726428     0.18600
H933        H  0.77642670  0.40118109  0.65149551     0.18600
N934        N  0.79610428  0.33091505  0.57700042    -0.88200
H935        H  0.72479170  0.23357770  0.80632364     0.35900
H936        H  0.69661343  0.25545123  0.77890713     0.41000
H937        H  0.81345487  0.30464914  0.58073867     0.40600
H938        H  0.80348071  0.37412174  0.57207227     0.35500
C939        C  0.78690444  0.28997995  0.46223282    -0.26200
C940        C  0.76948415  0.25732142  0.51036161    -0.14300
C941        C  0.73948649  0.25887408  0.51656259     0.36400
C942        C  0.73006692  0.30191405  0.97493662    -0.25600
C943        C  0.74749869  0.34193157  0.93250431    -0.14900
C944        C  0.77723003  0.34468369  0.93127053     0.37400
N945        N  0.79712693  0.38214068  0.88854770    -0.89100
H946        H  0.80984882  0.28715888  0.45544901     0.18600
H947        H  0.70745609  0.29845398  0.97684372     0.18600
N948        N  0.72067582  0.22218480  0.56183022    -0.88200
H949        H  0.79333083  0.42555339  0.89310894     0.35900
H950        H  0.79476030  0.37533168  0.84926160     0.41000
H951        H  0.70830796  0.19657433  0.54485810     0.40600
H952        H  0.70611443  0.24906047  0.07972550     0.35500
C953        C  0.57092061  0.90428558  0.96809262    -0.26200
C954        C  0.55743994  0.91596753  0.02151242    -0.14300
C955        C  0.55392580  0.86752594  0.52781532     0.36400
C956        C  0.57950752  0.83842338  0.52670529    -0.25600
C957        C  0.60404509  0.85710754  0.48494064    -0.14900
C958        C  0.60225053  0.90219111  0.44051536     0.37400
N959        N  0.62731392  0.92186223  0.39771466    -0.89100
H960        H  0.56160551  0.91989810  0.93283190     0.18600
H961        H  0.58100104  0.80510406  0.56188611     0.18600
N962        N  0.55702725  0.90750176  0.12260985    -0.88200
H963        H  0.59980166  0.88324364  0.87497121     0.35900
H964        H  0.63346159  0.88775439  0.37528285     0.41000
H965        H  0.52472757  0.88763001  0.59428627     0.40600
H966        H  0.51322505  0.83752529  0.56117745     0.35500
C967        C  0.65475452  0.74467824  0.64264719    -0.26200
C968        C  0.66928135  0.75237078  0.58610645    -0.13200
C969        C  0.69342730  0.71939820  0.56930691     0.36400
C970        C  0.70253376  0.67892232  0.60941136    -0.25600
C971        C  0.68820537  0.67201599  0.66607750    -0.14900
C972        C  0.66408788  0.70470552  0.68278759     0.37400
N973        N  0.64907947  0.69728400  0.74039575    -0.89100
H974        H  0.63623902  0.77024781  0.65565602     0.18600
H975        H  0.72146582  0.65436976  0.59671921     0.18600
N976        N  0.70954081  0.72783764  0.51248384    -0.88200
H977        H  0.62802627  0.68462120  0.74284873     0.35900
H978        H  0.64878812  0.73774115  0.75365519     0.41000
H979        H  0.69657765  0.71780474  0.48685503     0.40600
H980        H  0.71575421  0.77187114  0.50043263     0.35500
C981        C  0.65376684  0.63720578  0.97194224    -0.26200
C982        C  0.67111630  0.65132707  0.91746158    -0.14300
C983        C  0.67705856  0.71102804  0.89453226     0.36400
C984        C  0.66654274  0.75421347  0.92612468    -0.25600
C985        C  0.65029363  0.74034037  0.98128028    -0.14900
C986        C  0.64296108  0.68131646  0.00347890     0.37400
N987        N  0.62493422  0.66608204  0.05827241    -0.89100
H988        H  0.64918474  0.59187989  0.99065483     0.18600
H989        H  0.67291370  0.79922231  0.90876803     0.18600
N990        N  0.69534755  0.72954569  0.84054511    -0.88200
H991        H  0.63602482  0.63786714  0.08248296     0.35900
H992        H  0.60862419  0.63932650  0.57846186     0.41000
H993        H  0.68658022  0.71410057  0.81087249     0.40600
H994        H  0.71539990  0.71220078  0.84029150     0.35500
C995        C  0.86470830  0.80723375  0.56956193    -0.26200
C996        C  0.86047534  0.79973234  0.00628030    -0.14300
C997        C  0.88131549  0.81821222  0.95641247     0.36400
C998        C  0.90453842  0.85315015  0.95789463    -0.25600
C999        C  0.90741992  0.86882235  0.00839425    -0.14900
C1000       C  0.88878795  0.84356662  0.05904027     0.37400
N1001       N  0.87215353  0.88799947  0.61789355    -0.89100
H1002       H  0.84201586  0.81352591  0.58145688     0.18600
H1003       H  0.91913845  0.87202286  0.91909925     0.18600
N1004       N  0.87719558  0.80611288  0.90380329    -0.88200
H1005       H  0.85663511  0.91179693  0.60133816     0.35900
H1006       H  0.86213151  0.86479558  0.65712333     0.41000
H1007       H  0.87760508  0.76088076  0.90556226     0.40600
H1008       H  0.89408025  0.82385721  0.87092902     0.35500
C1009       C  0.80193531  0.58116138  0.58649522    -0.26200
C1010       C  0.78379244  0.60678226  0.62815846    -0.14300
C1011       C  0.78651354  0.66744667  0.62679448     0.36400
C1012       C  0.80691839  0.70105110  0.58430652    -0.25600
C1013       C  0.82482669  0.67594530  0.54226427    -0.14900
C1014       C  0.82273064  0.61471818  0.54416758     0.37400
N1015       N  0.84101581  0.58541055  0.50357310    -0.89100
H1016       H  0.79998056  0.53471854  0.58681059     0.18600
H1017       H  0.80723072  0.74788009  0.58172327     0.18600
N1018       N  0.76707387  0.69618677  0.66578303    -0.88200
H1019       H  0.85183590  0.55393969  0.52534384     0.35900
H1020       H  0.85681657  0.61394648  0.47721427     0.41000
H1021       H  0.75575379  0.72573100  0.64313228     0.40600
H1022       H  0.77899234  0.72033826  0.68487834     0.35500
C1023       C  0.80544232  0.70595449  0.88275955    -0.26200
C1024       C  0.79363449  0.69659833  0.94095800    -0.14300
C1025       C  0.77337335  0.65104068  0.96459485     0.36400
C1026       C  0.76507205  0.61641991  0.92988785    -0.25600
C1027       C  0.77517237  0.62876502  0.87168460    -0.14900
C1028       C  0.79594700  0.67318073  0.84782850     0.37400
N1029       N  0.80720972  0.68642974  0.78859060    -0.89100
H1030       H  0.82112393  0.74090436  0.86410817     0.18600
H1031       H  0.74915294  0.58195743  0.94844039     0.18600
N1032       N  0.77745238  0.73448725  0.47873794    -0.88200
H1033       H  0.79025313  0.69793063  0.76976597     0.35900
H1034       H  0.81598333  0.64863955  0.77485146     0.41000
H1035       H  0.76332113  0.71068577  0.51327505     0.40600
H1036       H  0.76654429  0.76824342  0.46010839     0.35500
loop_ 
_geom_bond_atom_site_label_1 
_geom_bond_atom_site_label_2 
_geom_bond_distance 
_geom_bond_site_symmetry_2 
_ccdc_geom_bond_type 
N1            C2   1.361       .  A
N1          C264   1.359       .  A
N1          C236   1.452   1_556  S
C2          C262   1.385       .  A
C2          C478   1.474   1_556  S
C3            C4   1.366       .  A
C3          C261   1.382       .  A
C3            H6   1.083       .  S
C4            C5   1.382       .  A
C4            H7   1.083       .  S
C5          N260   1.361       .  A
C5          C247   1.476       .  S
N8           C12   1.360       .  A
N8            C9   1.363   1_554  A
N8          C467   1.456   1_554  S
C9           C10   1.384   1_556  A
C9          C180   1.475       .  S
C10          C11   1.365       .  A
C10          H13   1.083       .  S
C11          C12   1.376       .  A
C11          H14   1.082       .  S
C12         C191   1.466       .  S
N15          C19   1.357       .  A
N15          C16   1.360       .  A
N15         C163   1.454       .  S
C16          C17   1.390       .  A
C16         C138   1.495       .  S
C17          C18   1.369       .  A
C17          H20   1.083       .  S
C18          C19   1.380       .  A
C18          H21   1.082       .  S
C19         C149   1.491       .  S
N22          C26   1.356       .  A
N22         C286   1.353       .  A
N22         H572   1.038   1_455  S
N23          C31   1.351       .  A
N23         C548   1.347       .  A
N24          C29   1.351       .  A
N24          C28   1.357   1_545  A
N24          H55   1.040       .  S
N25          C32   1.355       .  A
N25          C33   1.356       .  A
C26          C34   1.388       .  A
C26          C42   1.420   1_545  A
C27         N281   1.358       .  A
C27          C43   1.426       .  A
C27          C35   1.388       .  A
C28          C36   1.389       .  A
C28          C45   1.420       .  A
C29          C37   1.388       .  A
C29         C303   1.418       .  A
C30         N541   1.348   1_455  A
C30          C42   1.409       .  A
C30          C38   1.386   1_455  A
C31          C45   1.408       .  A
C31          C39   1.384       .  A
C32          C40   1.388       .  A
C32         C561   1.423       .  A
C33          C41   1.385       .  A
C33          C44   1.419       .  A
C34         C294   1.378       .  A
C34          H46   1.082       .  S
C35         C293   1.378       .  A
C35          H47   1.082       .  S
C36          C37   1.369   1_565  A
C36          H48   1.081       .  S
C37          H49   1.082       .  S
C38         C557   1.373       .  A
C38          H50   1.082   1_655  S
C39         C556   1.375       .  A
C39          H51   1.082       .  S
C40          C41   1.376       .  A
C40          H52   1.081       .  S
C41          H53   1.082       .  S
C42         C177   1.486       .  S
C43         C550   1.420   1_455  A
C43         C124   1.505       .  S
C44         C288   1.416       .  A
C44         C135   1.499       .  S
C45         C222   1.491       .  S
H54         N540   1.040       .  S
N56          C60   1.358       .  A
N56          C57   1.362       .  A
N56         C110   1.430       .  S
C57          C58   1.389       .  A
C57         C121   1.507       .  S
C58          C59   1.378       .  A
C58          H61   1.082       .  S
C59          C60   1.380       .  A
C59          H62   1.082       .  S
C60          C93   1.496       .  S
O63          C71   1.278       .  A
O63         Co83   2.032       .  S
O64          C72   1.274       .  A
O64         Co84   2.040       .  S
O65          C73   1.262       .  A
O65         Co85   1.883       .  S
O66          C74   1.246       .  A
O66         Co86   1.944       .  S
O67          C73   1.292       .  A
O67         Co84   2.102       .  S
O68          C74   1.270       .  A
O68         Co83   2.037       .  S
O69          C72   1.255       .  A
O69         Co86   1.955       .  S
O70          C71   1.271       .  A
O70         Co85   1.980       .  S
C71         C205   1.483       .  S
C72          C96   1.479       .  S
C73         C194   1.458       .  S
C74         C107   1.478       .  S
O75          C88   1.255       .  A
O75         Co83   1.944       .  S
O76          C89   1.274       .  A
O76         Co84   1.914       .  S
O77          C90   1.256       .  A
O77         Co85   1.992       .  S
O78          C91   1.271       .  A
O78         Co86   1.996       .  S
O79          C91   1.271       .  A
O79         Co84   1.978       .  S
O80          C90   1.249       .  A
O80         Co83   1.956       .  S
O81          C88   1.284       .  A
O81         Co86   2.067       .  S
O82          C89   1.301       .  A
O82         Co85   2.116       .  S
Co83         O87   2.042       .  S
Co84         O87   2.026       .  S
Co85         O87   2.011       .  S
Co86         O87   2.011       .  S
C88         C166   1.493       .  S
C89         C233   1.501       .  S
C90         C250   1.460       .  S
C91         C152   1.484       .  S
C92          C93   1.411       .  A
C92          C97   1.412       .  A
C92          H99   1.081       .  S
C93          C94   1.409       .  A
C94          C95   1.401       .  A
C94         N101   1.433       .  S
C95          C96   1.404       .  A
C95         H100   1.085       .  S
C96          C97   1.403       .  A
C97          N98   1.430       .  S
N98         H102   1.043       .  S
N98         H103   1.046       .  S
N101        H104   1.046       .  S
N101        H105   1.045       .  S
C106        C107   1.404       .  A
C106        C370   1.402       .  A
C106        H113   1.083       .  S
C107        C367   1.419       .  A
C108        C109   1.394       .  A
C108        C366   1.414   1_554  A
C108        N115   1.434   1_554  S
C109        C110   1.401       .  A
C109        H114   1.084       .  S
C110        C111   1.412       .  A
C111        C365   1.400       .  A
C111        N112   1.437       .  S
N112        H117   1.045       .  S
N112        H375   1.045       .  S
N115        H119   1.045       .  S
N115        H377   1.044       .  S
H116        N371   1.045       .  S
H118        N374   1.044       .  S
C120        C121   1.409       .  A
C120        C125   1.416       .  A
C120        H127   1.080       .  S
C121        C122   1.418       .  A
C122        C123   1.405       .  A
C122        N129   1.439       .  S
C123        C124   1.401       .  A
C123        H128   1.084       .  S
C124        C125   1.420       .  A
C125        N385   1.438   1_554  S
N126        C384   1.437       .  S
N126        H130   1.045       .  S
N126        H131   1.044       .  S
N129        H132   1.045       .  S
N129        H133   1.046       .  S
C134        C394   1.409       .  A
C134        C398   1.406       .  A
C134        H141   1.084       .  S
C135        C136   1.406       .  A
C135        C393   1.409   1_554  A
C136        C137   1.399       .  A
C136        N143   1.433       .  S
C137        C138   1.411       .  A
C137        H142   1.084       .  S
C138        C139   1.415   1_554  A
C139        C393   1.412       .  A
C139        N399   1.437       .  S
N140        C398   1.437       .  S
N140        H144   1.046       .  S
N140        H145   1.044       .  S
N143        H146   1.046       .  S
N143        H147   1.046       .  S
C148        C149   1.402       .  A
C148        C153   1.398       .  A
C148        H155   1.083       .  S
C149        C150   1.419       .  A
C150        C151   1.409       .  A
C150        N157   1.437       .  S
C151        C152   1.403       .  A
C151        H156   1.084       .  S
C152        C153   1.413       .  A
C153        N154   1.434       .  S
N154        H158   1.045       .  S
N154        H159   1.046       .  S
N157        H160   1.045       .  S
N157        H161   1.046       .  S
C162        C163   1.398   1_556  A
C162        C426   1.406       .  A
C162        H169   1.083       .  S
C163        C164   1.418       .  A
C164        C424   1.408   1_554  A
C164        N171   1.432       .  S
C165        C166   1.403       .  A
C165        C423   1.407       .  A
C165        H170   1.083       .  S
C166        C167   1.424       .  A
C167        C421   1.402       .  A
C167        N168   1.433       .  S
N168        H172   1.044       .  S
N168        H173   1.046       .  S
N171        H174   1.045       .  S
N171        H434   1.046       .  S
H175        N430   1.046       .  S
C176        C177   1.406       .  A
C176        C440   1.411       .  A
C176        H183   1.083       .  S
C177        C437   1.409       .  A
C178        C179   1.400       .  A
C178        C436   1.414   1_554  A
C178        N444   1.433       .  S
C179        C180   1.404   1_554  A
C179        H184   1.084       .  S
C180        C181   1.410       .  A
C181        C435   1.405       .  A
C181        N182   1.437       .  S
N182        H187   1.045       .  S
N182        H445   1.045       .  S
N185        C437   1.433       .  S
N185        H447   1.045       .  S
N185        H448   1.044       .  S
H186        N441   1.045       .  S
H188        N444   1.045       .  S
H189        N444   1.044       .  S
C190        C191   1.405       .  A
C190        C195   1.404       .  A
C190        H197   1.084       .  S
C191        C192   1.405       .  A
C192        C193   1.394       .  A
C192        N199   1.430       .  S
C193        C194   1.400       .  A
C193        H198   1.084       .  S
C194        C195   1.407       .  A
C195        N196   1.437       .  S
N196        H200   1.046       .  S
N196        H201   1.045       .  S
N199        H202   1.043   1_554  S
N199        H203   1.045       .  S
C204        C205   1.403       .  A
C204        C209   1.410       .  A
C204        H211   1.084       .  S
C205        C206   1.416       .  A
C206        C207   1.398       .  A
C206        N213   1.430       .  S
C207        C208   1.405       .  A
C207        H212   1.083       .  S
C208        N267   1.451       .  S
C208        C209   1.412       .  A
C209        N210   1.428       .  S
N210        H214   1.045       .  S
N210        H474   1.045       .  S
N213        H216   1.042       .  S
N213        H217   1.044       .  S
H215        N469   1.046       .  S
C218        C478   1.402       .  A
C218        C482   1.405       .  A
C218        H225   1.081       .  S
C219        C220   1.412       .  A
C219        C477   1.400       .  A
C219        C261   1.475       .  S
C220        C221   1.404       .  A
C220        N227   1.438       .  S
C221        C222   1.400       .  A
C221        H226   1.084       .  S
C222        C223   1.411       .  A
C223        C477   1.406       .  A
C223        N483   1.432       .  S
N224        C482   1.433       .  S
N224        H228   1.046       .  S
N224        H229   1.045       .  S
N227        H230   1.045       .  S
N227        H231   1.046       .  S
C232        C233   1.407       .  A
C232        C237   1.415       .  A
C232        H239   1.084       .  S
C233        C234   1.414       .  A
C234        C235   1.407       .  A
C234        N241   1.431       .  S
C235        C236   1.400       .  A
C235        H240   1.080       .  S
C236        C237   1.420       .  A
C237        N238   1.438       .  S
N238        H242   1.046       .  S
N238        H243   1.044   1_554  S
N241        H244   1.046       .  S
N241        H245   1.045       .  S
C246        C247   1.407       .  A
C246        C251   1.395       .  A
C246        H253   1.084       .  S
C247        C248   1.406       .  A
C248        C249   1.399       .  A
C248        N514   1.430       .  S
C249        C250   1.403       .  A
C249        H254   1.083       .  S
C250        C251   1.403       .  A
C251        N252   1.431       .  S
N252        H256   1.044       .  S
N252        H257   1.046       .  S
N255        C507   1.430       .  S
N255        H258   1.045   1_556  S
N255        H259   1.045       .  S
N260        C261   1.357       .  A
N260        C495   1.446       .  S
C262        C263   1.364       .  A
C262        H265   1.083       .  S
C263        C264   1.377       .  A
C263        H266   1.083       .  S
C264        C506   1.463       .  S
N267        C271   1.360       .  A
N267        C268   1.363       .  A
C268        C269   1.385       .  A
C268        C439   1.477       .  S
C269        C270   1.363       .  A
C269        H272   1.083       .  S
C270        C271   1.377       .  A
C270        H273   1.082       .  S
C271        C450   1.477       .  S
N274        C278   1.357       .  A
N274        C275   1.356       .  A
N274        C422   1.451       .  S
C275        C276   1.387       .  A
C275        C397   1.481       .  S
C276        C277   1.371       .  A
C276        H279   1.083       .  S
C277        C278   1.381       .  A
C277        H280   1.082       .  S
C278        C408   1.493       .  S
N281        C285   1.355       .  A
N281        H831   1.037   1_454  S
N282        C807   1.347       .  A
N282        C290   1.349       .  A
N283        C288   1.355       .  A
N283        C287   1.355   1_545  A
N283        H314   1.041       .  S
N284        C291   1.354       .  A
N284        C292   1.352       .  A
C285        C293   1.386       .  A
C285        C301   1.422   1_544  A
C286        C302   1.417       .  A
C286        C294   1.385       .  A
C287        C295   1.386   1_554  A
C287        C304   1.420       .  A
C288        C296   1.388   1_554  A
C289        N800   1.349   1_456  A
C289        C301   1.411       .  A
C289        C297   1.387   1_455  A
C290        C304   1.412       .  A
C290        C298   1.386       .  A
C291        C299   1.387       .  A
C291        C820   1.420       .  A
C292        C300   1.386       .  A
C292        C303   1.418       .  A
C293        H305   1.082       .  S
C294        H306   1.082       .  S
C295        C296   1.372   1_565  A
C295        H307   1.082       .  S
C296        H308   1.079       .  S
C297        C816   1.372       .  A
C297        H309   1.082   1_655  S
C298        C815   1.375       .  A
C298        H310   1.082       .  S
C299        C300   1.376       .  A
C299        H311   1.081       .  S
C300        H312   1.082       .  S
C301        C436   1.489       .  S
C302        C809   1.422   1_455  A
C302        C383   1.506       .  S
C303        C394   1.490       .  S
C304        C481   1.500       .  S
H313        N799   1.035       .  S
N315        C319   1.355       .  A
N315        C316   1.357       .  A
N315        C369   1.433       .  S
C316        C317   1.385       .  A
C316        C380   1.487       .  S
C317        C318   1.377       .  A
C317        H320   1.082       .  S
C318        C319   1.382       .  A
C318        H321   1.082       .  S
C319        C352   1.486       .  S
O322        C330   1.286       .  A
O322       Co342   2.056       .  S
O323        C331   1.271       .  A
O323       Co343   2.026       .  S
O324        C332   1.259       .  A
O324       Co344   1.888       .  S
O325        C333   1.248       .  A
O325       Co345   1.942       .  S
O326        C332   1.292       .  A
O326       Co343   2.106       .  S
O327        C333   1.267       .  A
O327       Co342   2.024       .  S
O328        C331   1.258       .  A
O328       Co345   1.959       .  S
O329        C330   1.273       .  A
O329       Co344   1.979       .  S
C330        C464   1.501       .  S
C331        C355   1.471       .  S
C332        C453   1.464       .  S
C333        C366   1.468       .  S
O334        C347   1.255       .  A
O334       Co342   1.948       .  S
O335        C348   1.274       .  A
O335       Co343   1.903       .  S
O336        C349   1.254       .  A
O336       Co344   2.002       .  S
O337        C350   1.269       .  A
O337       Co345   1.997       .  S
O338        C350   1.269       .  A
O338       Co343   1.980       .  S
O339        C349   1.248       .  A
O339       Co342   1.960       .  S
O340        C347   1.284       .  A
O340       Co345   2.066       .  S
O341        C348   1.297       .  A
O341       Co344   2.100       .  S
Co342       O346   2.029       .  S
Co343       O346   2.027       .  S
Co344       O346   2.003       .  S
Co345       O346   2.014       .  S
C347        C425   1.501       .  S
C348        C492   1.489       .  S
C349        C509   1.459       .  S
C350        C411   1.485       .  S
C351        C352   1.409       .  A
C351        C356   1.410       .  A
C351        H358   1.083       .  S
C352        C353   1.407       .  A
C353        C354   1.397       .  A
C353        N360   1.433       .  S
C354        C355   1.401       .  A
C354        H359   1.085       .  S
C355        C356   1.405       .  A
C356        N357   1.431       .  S
N357        H361   1.045       .  S
N357        H362   1.045       .  S
N360        H363   1.046       .  S
N360        H364   1.046       .  S
C365        C366   1.403   1_554  A
C365        H372   1.084       .  S
C367        C368   1.395       .  A
C367        N374   1.433       .  S
C368        C369   1.398       .  A
C368        H373   1.084       .  S
C369        C370   1.414       .  A
C370        N371   1.437       .  S
N371        H376   1.044       .  S
N374        H378   1.045       .  S
C379        C380   1.404       .  A
C379        C384   1.413       .  A
C379        H386   1.083       .  S
C380        C381   1.409       .  A
C381        C382   1.403       .  A
C381        N388   1.438       .  S
C382        C383   1.405       .  A
C382        H387   1.084       .  S
C383        C384   1.423       .  A
N385        H389   1.045       .  S
N385        H390   1.044       .  S
N388        H391   1.045       .  S
N388        H392   1.045       .  S
C393        H400   1.083       .  S
C394        C395   1.405       .  A
C395        C396   1.397       .  A
C395        N402   1.433       .  S
C396        C397   1.407       .  A
C396        H401   1.085       .  S
C397        C398   1.412       .  A
N399        H403   1.045       .  S
N399        H404   1.043       .  S
N402        H405   1.046       .  S
N402        H406   1.045       .  S
C407        C408   1.404       .  A
C407        C412   1.401       .  A
C407        H414   1.083       .  S
C408        C409   1.416       .  A
C409        C410   1.408       .  A
C409        N416   1.431       .  S
C410        C411   1.404       .  A
C410        H415   1.084       .  S
C411        C412   1.413       .  A
C412        N413   1.433       .  S
N413        H417   1.045       .  S
N413        H418   1.046       .  S
N416        H419   1.045       .  S
N416        H420   1.046       .  S
C421        C422   1.400       .  A
C421        H428   1.083       .  S
C422        C423   1.418       .  A
C423        N430   1.432       .  S
C424        C425   1.403       .  A
C424        H429   1.084       .  S
C425        C426   1.429       .  A
C426        N427   1.433       .  S
N427        H431   1.044       .  S
N427        H432   1.045       .  S
N430        H433   1.045       .  S
C435        C436   1.401       .  A
C435        H442   1.084       .  S
C437        C438   1.394       .  A
C438        C439   1.406       .  A
C438        H443   1.085       .  S
C439        C440   1.407       .  A
C440        N441   1.436       .  S
N441        H446   1.045       .  S
C449        C450   1.404       .  A
C449        C454   1.405       .  A
C449        H456   1.083       .  S
C450        C451   1.411       .  A
C451        C452   1.397       .  A
C451        N458   1.433       .  S
C452        C453   1.401       .  A
C452        H457   1.084       .  S
C453        C454   1.404       .  A
C454        N455   1.437       .  S
N455        H459   1.046       .  S
N455        H460   1.044       .  S
N458        H461   1.046       .  S
N458        H462   1.043       .  S
C463        C464   1.408       .  A
C463        C468   1.416   1_556  A
C463        H470   1.084   1_556  S
C464        C465   1.421       .  A
C465        C466   1.401       .  A
C465        N472   1.430       .  S
C466        C467   1.403       .  A
C466        H471   1.082       .  S
C467        C468   1.413   1_556  A
C468        N469   1.430       .  S
N469        H473   1.044       .  S
N472        H475   1.043       .  S
N472        H476   1.045       .  S
C477        H484   1.083       .  S
C478        C479   1.414       .  A
C479        C480   1.399       .  A
C479        N486   1.438   1_554  S
C480        C481   1.404       .  A
C480        H485   1.083   1_554  S
C481        C482   1.412       .  A
N483        H487   1.046       .  S
N483        H488   1.045       .  S
N486        H489   1.045       .  S
N486        H490   1.046   1_556  S
C491        C492   1.407       .  A
C491        C496   1.410       .  A
C491        H498   1.084       .  S
C492        C493   1.413       .  A
C493        C494   1.398       .  A
C493        N500   1.433       .  S
C494        C495   1.404       .  A
C494        H499   1.082       .  S
C495        C496   1.414       .  A
C496        N497   1.436       .  S
N497        H501   1.045       .  S
N497        H502   1.045       .  S
N500        H503   1.046       .  S
N500        H504   1.046       .  S
C505        C506   1.400       .  A
C505        C510   1.396       .  A
C505        H512   1.084       .  S
C506        C507   1.402       .  A
C507        C508   1.402       .  A
C508        C509   1.403       .  A
C508        H513   1.084       .  S
C509        C510   1.404       .  A
C510        N511   1.433       .  S
N511        H515   1.045       .  S
N511        H516   1.046       .  S
N514        H517   1.044       .  S
N514        H518   1.045       .  S
N519        C782   1.361   1_554  A
N519        C520   1.359       .  A
N519        C754   1.448       .  S
C520        C780   1.380   1_554  A
C520        C996   1.472       .  S
C521        C779   1.385       .  A
C521        C522   1.367       .  A
C521        H524   1.083       .  S
C522        C523   1.376       .  A
C522        H525   1.082       .  S
C523        N778   1.358       .  A
C523        C765   1.464       .  S
N526        C530   1.357       .  A
N526        C527   1.363   1_554  A
N526        C985   1.449   1_554  S
C527        C528   1.386   1_556  A
C527        C698   1.477   1_556  S
C528        C529   1.366       .  A
C528        H531   1.083       .  S
C529        C530   1.376       .  A
C529        H532   1.082       .  S
C530        C709   1.473       .  S
N533        C537   1.356       .  A
N533        C534   1.353       .  A
N533        C681   1.448       .  S
C534        C535   1.387       .  A
C534        C656   1.479       .  S
C535        C536   1.369       .  A
C535        H538   1.083       .  S
C536        C537   1.381       .  A
C536        H539   1.082       .  S
C537        C667   1.486       .  S
N540        C804   1.360       .  A
N540        C544   1.354       .  A
N541        C549   1.350       .  A
N542        C547   1.356       .  A
N542        C546   1.357   1_545  A
N542        H573   1.040       .  S
N543        C550   1.353       .  A
N543        C551   1.353   1_554  A
C544        C552   1.387       .  A
C544        C560   1.423   1_545  A
C545        N799   1.353       .  A
C545        C561   1.417       .  A
C545        C553   1.386   1_554  A
C546        C554   1.386       .  A
C546        C563   1.423       .  A
C547        C821   1.421       .  A
C547        C555   1.389       .  A
C548        C560   1.412       .  A
C548        C556   1.389       .  A
C549        C563   1.412       .  A
C549        C557   1.386       .  A
C550        C558   1.386   1_554  A
C551        C559   1.385       .  A
C551        C562   1.418       .  A
C552        C812   1.378       .  A
C552        H564   1.082       .  S
C553        C811   1.379       .  A
C553        H565   1.083       .  S
C554        C555   1.371   1_565  A
C554        H566   1.082       .  S
C555        H567   1.079       .  S
C556        H568   1.082       .  S
C557        H569   1.082       .  S
C558        C559   1.377       .  A
C558        H570   1.081       .  S
C559        H571   1.082       .  S
C560        C695   1.486       .  S
C561        C642   1.499       .  S
C562        C806   1.418   1_556  A
C562        C653   1.497       .  S
C563        C740   1.503       .  S
N574        C578   1.353       .  A
N574        C575   1.355       .  A
N574        C628   1.435       .  S
C575        C576   1.386       .  A
C575        C639   1.484       .  S
C576        C577   1.377       .  A
C576        H579   1.082       .  S
C577        C578   1.382       .  A
C577        H580   1.082       .  S
C578        C611   1.480       .  S
O581        C589   1.287       .  A
O581       Co601   2.057       .  S
O582        C590   1.270       .  A
O582       Co602   2.026       .  S
O583        C591   1.261       .  A
O583       Co603   1.896       .  S
O584        C592   1.248       .  A
O584       Co604   1.944       .  S
O585        C591   1.290       .  A
O585       Co602   2.104       .  S
O586        C592   1.270       .  A
O586       Co601   2.038       .  S
O587        C590   1.254       .  A
O587       Co604   1.949       .  S
O588        C589   1.272       .  A
O588       Co603   1.975       .  S
C589        C723   1.500       .  S
C590        C614   1.464       .  S
C591        C712   1.466       .  S
C592        C625   1.476       .  S
O593        C606   1.258       .  A
O593       Co601   1.957       .  S
O594        C607   1.272       .  A
O594       Co602   1.900       .  S
O595        C608   1.258       .  A
O595       Co603   2.004       .  S
O596        C609   1.270       .  A
O596       Co604   1.994       .  S
O597        C609   1.268       .  A
O597       Co602   1.975       .  S
O598        C608   1.249       .  A
O598       Co601   1.962       .  S
O599        C606   1.281       .  A
O599       Co604   2.048       .  S
O600        C607   1.300       .  A
O600       Co603   2.113       .  S
Co601       O605   2.030       .  S
Co602       O605   2.023       .  S
Co603       O605   2.004       .  S
Co604       O605   2.006       .  S
C606        C684   1.488       .  S
C607        C751   1.491       .  S
C608        C768   1.461       .  S
C609        C670   1.479       .  S
C610        C611   1.408       .  A
C610        C615   1.406       .  A
C610        H617   1.083       .  S
C611        C612   1.408       .  A
C612        C613   1.396       .  A
C612        N619   1.433       .  S
C613        C614   1.402       .  A
C613        H618   1.085       .  S
C614        C615   1.401       .  A
C615        N616   1.430       .  S
N616        H620   1.044       .  S
N616        H621   1.046       .  S
N619        H622   1.046       .  S
N619        H623   1.045       .  S
C624        C625   1.406       .  A
C624        C888   1.405       .  A
C624        H631   1.083       .  S
C625        C885   1.415       .  A
C626        C884   1.419       .  A
C626        C627   1.396   1_556  A
C626        N633   1.433       .  S
C627        C628   1.398       .  A
C627        H632   1.084       .  S
C628        C629   1.414       .  A
C629        C883   1.404       .  A
C629        N630   1.437       .  S
N630        H893   1.046       .  S
N630        H635   1.044       .  S
N633        H895   1.044       .  S
N633        H637   1.045       .  S
H634        N889   1.046       .  S
H636        N892   1.044       .  S
C638        C639   1.404       .  A
C638        C643   1.411       .  A
C638        H645   1.083       .  S
C639        C640   1.411       .  A
C640        C641   1.401       .  A
C640        N647   1.439       .  S
C641        C642   1.402       .  A
C641        H646   1.084       .  S
C642        C643   1.421       .  A
C643        N903   1.437   1_554  S
N644        C902   1.437       .  S
N644        H648   1.045       .  S
N644        H649   1.044       .  S
N647        H650   1.046       .  S
N647        H651   1.044       .  S
C652        C912   1.412       .  A
C652        C916   1.411       .  A
C652        H659   1.084       .  S
C653        C911   1.411       .  A
C653        C654   1.408   1_556  A
C654        C655   1.398       .  A
C654        N661   1.432       .  S
C655        C656   1.405       .  A
C655        H660   1.085       .  S
C656        C657   1.409   1_554  A
C657        C911   1.407       .  A
C657        N917   1.437       .  S
N658        C916   1.437       .  S
N658        H662   1.046       .  S
N658        H663   1.044       .  S
N661        H664   1.046       .  S
N661        H665   1.045       .  S
C666        C667   1.402       .  A
C666        C671   1.398       .  A
C666        H673   1.084       .  S
C667        C668   1.416       .  A
C668        C669   1.406       .  A
C668        N675   1.432       .  S
C669        C670   1.404       .  A
C669        H674   1.084       .  S
C670        C671   1.412       .  A
C671        N672   1.433       .  S
N672        H676   1.045       .  S
N672        H677   1.046       .  S
N675        H678   1.045       .  S
N675        H679   1.046       .  S
C680        C681   1.396   1_556  A
C680        C944   1.401       .  A
C680        H687   1.083       .  S
C681        C682   1.415       .  A
C682        C942   1.409   1_554  A
C682        N689   1.432       .  S
C683        C941   1.402       .  A
C683        C684   1.398       .  A
C683        H688   1.083       .  S
C684        C685   1.423       .  A
C685        C939   1.407       .  A
C685        N686   1.433       .  S
N686        H690   1.044       .  S
N686        H691   1.046       .  S
N689        H692   1.045       .  S
N689        H952   1.046       .  S
H693        N948   1.046       .  S
C694        C695   1.401       .  A
C694        C958   1.405       .  A
C694        H701   1.084       .  S
C695        C955   1.414       .  A
C696        C954   1.410       .  A
C696        C697   1.397       .  A
C696        N962   1.433       .  S
C697        C698   1.406       .  A
C697        H702   1.084       .  S
C698        C699   1.407   1_554  A
C699        C953   1.410       .  A
C699        N700   1.436       .  S
N700        H963   1.046       .  S
N700        H705   1.045       .  S
N703        C955   1.433       .  S
N703        H965   1.045       .  S
N703        H966   1.044       .  S
H704        N959   1.045       .  S
H706        N962   1.046       .  S
H707        N962   1.044       .  S
C708        C709   1.404       .  A
C708        C713   1.403       .  A
C708        H715   1.084       .  S
C709        C710   1.409       .  A
C710        C711   1.399       .  A
C710        N717   1.433       .  S
C711        C712   1.402       .  A
C711        H716   1.082       .  S
C712        C713   1.403       .  A
C713        N714   1.431       .  S
N714        H718   1.045       .  S
N714        H719   1.046       .  S
N717        H720   1.046   1_554  S
N717        H721   1.044       .  S
C722        C723   1.408       .  A
C722        C727   1.415       .  A
C722        H729   1.083       .  S
C723        C724   1.421       .  A
C724        C725   1.400       .  A
C724        N731   1.429       .  S
C725        C726   1.401       .  A
C725        H730   1.082       .  S
C726        N785   1.453       .  S
C726        C727   1.412       .  A
C727        N728   1.430       .  S
N728        H732   1.043       .  S
N728        H992   1.046       .  S
N731        H734   1.044       .  S
N731        H735   1.044       .  S
H733        N987   1.045       .  S
C736        C996   1.400       .  A
C736       C1000   1.404       .  A
C736        H743   1.082       .  S
C737        C995   1.404       .  A
C737        C738   1.412       .  A
C737        C779   1.476       .  S
C738        C739   1.399       .  A
C738        N745   1.437       .  S
C739        C740   1.406       .  A
C739        H744   1.083       .  S
C740        C741   1.412       .  A
C741        C995   1.406       .  A
C741       N1001   1.433       .  S
N742       C1000   1.432       .  S
N742        H746   1.045       .  S
N742        H747   1.046       .  S
N745        H748   1.046       .  S
N745        H749   1.045       .  S
C750        C751   1.409       .  A
C750        C755   1.413       .  A
C750        H757   1.084       .  S
C751        C752   1.411       .  A
C752        C753   1.398       .  A
C752        N759   1.432       .  S
C753        C754   1.404       .  A
C753        H758   1.082       .  S
C754        C755   1.416       .  A
C755        N756   1.436       .  S
N756        H760   1.046       .  S
N756        H761   1.045   1_554  S
N759        H762   1.046       .  S
N759        H763   1.045       .  S
C764        C765   1.400       .  A
C764        C769   1.399       .  A
C764        H771   1.084       .  S
C765        C766   1.402       .  A
C766        C767   1.400       .  A
C766       N1032   1.430       .  S
C767        C768   1.402       .  A
C767        H772   1.083       .  S
C768        C769   1.407       .  A
C769        N770   1.433       .  S
N770        H774   1.046       .  S
N770        H775   1.046       .  S
N773       C1025   1.429   1_554  S
N773        H776   1.044       .  S
N773        H777   1.044       .  S
N778        C779   1.358       .  A
N778       C1013   1.446       .  S
C780        C781   1.363       .  A
C780        H783   1.083       .  S
C781        C782   1.381       .  A
C781        H784   1.083       .  S
C782       C1024   1.474       .  S
N785        C789   1.360       .  A
N785        C786   1.361       .  A
C786        C787   1.383       .  A
C786        C957   1.473       .  S
C787        C788   1.367       .  A
C787        H790   1.083       .  S
C788        C789   1.378       .  A
C788        H791   1.082       .  S
C789        C968   1.467       .  S
N792        C796   1.358       .  A
N792        C793   1.359       .  A
N792        C940   1.454       .  S
C793        C794   1.391       .  A
C793        C915   1.494       .  S
C794        C795   1.372       .  A
C794        H797   1.083       .  S
C795        C796   1.381       .  A
C795        H798   1.081       .  S
C796        C926   1.499       .  S
N799        C803   1.357       .  A
N800        C808   1.350   1_554  A
N801        C806   1.353   1_556  A
N801        C805   1.355   1_546  A
N801        H832   1.039       .  S
N802        C809   1.357       .  A
N802        C810   1.355       .  A
C803        C811   1.389   1_554  A
C803        C819   1.422   1_545  A
C804        C820   1.427       .  A
C804        C812   1.388       .  A
C805        C813   1.389       .  A
C805        C822   1.420       .  A
C806        C814   1.387       .  A
C807        C819   1.410       .  A
C807        C815   1.386       .  A
C808        C822   1.409   1_556  A
C808        C816   1.386       .  A
C809        C817   1.386       .  A
C810        C818   1.386       .  A
C810        C821   1.421       .  A
C811        H823   1.082       .  S
C812        H824   1.082       .  S
C813        C814   1.370   1_565  A
C813        H825   1.080       .  S
C814        H826   1.082       .  S
C815        H827   1.082       .  S
C816        H828   1.082       .  S
C817        C818   1.375       .  A
C817        H829   1.080       .  S
C818        H830   1.082       .  S
C819        C954   1.488       .  S
C820        C901   1.507       .  S
C821        C912   1.500       .  S
C822        C999   1.486       .  S
N833        C837   1.355       .  A
N833        C834   1.359       .  A
N833        C887   1.432       .  S
C834        C835   1.389       .  A
C834        C898   1.500       .  S
C835        C836   1.378       .  A
C835        H838   1.082       .  S
C836        C837   1.380       .  A
C836        H839   1.082       .  S
C837        C870   1.488       .  S
O840        C848   1.279       .  A
O840       Co860   2.042       .  S
O841        C849   1.270       .  A
O841       Co861   2.027       .  S
O842        C850   1.261       .  A
O842       Co862   1.879       .  S
O843        C851   1.249       .  A
O843       Co863   1.945       .  S
O844        C850   1.293       .  A
O844       Co861   2.109       .  S
O845        C851   1.272       .  A
O845       Co860   2.042       .  S
O846        C849   1.255       .  A
O846       Co863   1.956       .  S
O847        C848   1.272       .  A
O847       Co862   1.985       .  S
C848        C982   1.492       .  S
C849        C873   1.471       .  S
C850        C971   1.460       .  S
C851        C884   1.480       .  S
O852        C865   1.251       .  A
O852       Co860   1.940       .  S
O853        C866   1.273       .  A
O853       Co861   1.902       .  S
O854        C867   1.257       .  A
O854       Co862   1.995       .  S
O855        C868   1.273       .  A
O855       Co863   2.009       .  S
O856        C868   1.271       .  A
O856       Co861   1.983       .  S
O857        C867   1.248       .  A
O857       Co860   1.960       .  S
O858        C865   1.282       .  A
O858       Co863   2.067       .  S
O859        C866   1.298       .  A
O859       Co862   2.108       .  S
Co860       O864   2.034       .  S
Co861       O864   2.028       .  S
Co862       O864   2.007       .  S
Co863       O864   2.018       .  S
C865        C943   1.497       .  S
C866       C1010   1.487       .  S
C867       C1027   1.458       .  S
C868        C929   1.492       .  S
C869        C870   1.410       .  A
C869        C874   1.410       .  A
C869        H876   1.081       .  S
C870        C871   1.407       .  A
C871        C872   1.397       .  A
C871        N878   1.433       .  S
C872        C873   1.402       .  A
C872        H877   1.085       .  S
C873        C874   1.404       .  A
C874        N875   1.431       .  S
N875        H879   1.044       .  S
N875        H880   1.046       .  S
N878        H881   1.046       .  S
N878        H882   1.046       .  S
C883        C884   1.405   1_554  A
C883        H890   1.084       .  S
C885        C886   1.394       .  A
C885        N892   1.433       .  S
C886        C887   1.399       .  A
C886        H891   1.084       .  S
C887        C888   1.411       .  A
C888        N889   1.437       .  S
N889        H894   1.044       .  S
N892        H896   1.045       .  S
C897        C898   1.407       .  A
C897        C902   1.414       .  A
C897        H904   1.082       .  S
C898        C899   1.416       .  A
C899        C900   1.405       .  A
C899        N906   1.439       .  S
C900        C901   1.402       .  A
C900        H905   1.084       .  S
C901        C902   1.422       .  A
N903        H907   1.045       .  S
N903        H908   1.044       .  S
N906        H909   1.045       .  S
N906        H910   1.046       .  S
C911        H918   1.084       .  S
C912        C913   1.418       .  A
C913        C914   1.396       .  A
C913        N920   1.441       .  S
C914        C915   1.408       .  A
C914        H919   1.084       .  S
C915        C916   1.413       .  A
N917        H921   1.046       .  S
N917        H922   1.045       .  S
N920        H923   1.040       .  S
N920        H924   1.046       .  S
C925        C926   1.404       .  A
C925        C930   1.402       .  A
C925        H932   1.082       .  S
C926        C927   1.420       .  A
C927        C928   1.413       .  A
C927        N934   1.437       .  S
C928        C929   1.406       .  A
C928        H933   1.084       .  S
C929        C930   1.413       .  A
C930        N931   1.433       .  S
N931        H935   1.045       .  S
N931        H936   1.046       .  S
N934        H937   1.043       .  S
N934        H938   1.048       .  S
C939        C940   1.403       .  A
C939        H946   1.083       .  S
C940        C941   1.420       .  A
C941        N948   1.432       .  S
C942        C943   1.405       .  A
C942        H947   1.084       .  S
C943        C944   1.429       .  A
C944        N945   1.433       .  S
N945        H949   1.044       .  S
N945        H950   1.046       .  S
N948        H951   1.046       .  S
C953        C954   1.407   1_556  A
C953        H960   1.084       .  S
C955        C956   1.398       .  A
C956        C957   1.402       .  A
C956        H961   1.084       .  S
C957        C958   1.410       .  A
C958        N959   1.437       .  S
N959        H964   1.045       .  S
C967        C968   1.402       .  A
C967        C972   1.398       .  A
C967        H974   1.084       .  S
C968        C969   1.408       .  A
C969        C970   1.399       .  A
C969        N976   1.431       .  S
C970        C971   1.403       .  A
C970        H975   1.084       .  S
C971        C972   1.403       .  A
C972        N973   1.432       .  S
N973        H977   1.045       .  S
N973        H978   1.046       .  S
N976        H979   1.042       .  S
N976        H980   1.045       .  S
C981        C982   1.408       .  A
C981        C986   1.416   1_556  A
C981        H988   1.083       .  S
C982        C983   1.417       .  A
C983        C984   1.396       .  A
C983        N990   1.428       .  S
C984        C985   1.402       .  A
C984        H989   1.084       .  S
C985        C986   1.409   1_556  A
C986        N987   1.429       .  S
N987        H991   1.044       .  S
N990        H993   1.041       .  S
N990        H994   1.043       .  S
C995       H1002   1.081       .  S
C996        C997   1.412   1_554  A
C997        C998   1.401       .  A
C997       N1004   1.438       .  S
C998        C999   1.399   1_556  A
C998       H1003   1.084       .  S
C999       C1000   1.410       .  A
N1001      H1005   1.046       .  S
N1001      H1006   1.045       .  S
N1004      H1007   1.046       .  S
N1004      H1008   1.045       .  S
C1009      C1010   1.403       .  A
C1009      C1014   1.409       .  A
C1009      H1016   1.084       .  S
C1010      C1011   1.413       .  A
C1011      C1012   1.401       .  A
C1011      N1018   1.431       .  S
C1012      C1013   1.398       .  A
C1012      H1017   1.081       .  S
C1013      C1014   1.421       .  A
C1014      N1015   1.437       .  S
N1015      H1019   1.045       .  S
N1015      H1020   1.044       .  S
N1018      H1021   1.046       .  S
N1018      H1022   1.044       .  S
C1023      C1024   1.409       .  A
C1023      C1028   1.397       .  A
C1023      H1030   1.084       .  S
C1024      C1025   1.406       .  A
C1025      C1026   1.395       .  A
C1026      C1027   1.399       .  A
C1026      H1031   1.083       .  S
C1027      C1028   1.404       .  A
C1028      N1029   1.430       .  S
N1029      H1033   1.043       .  S
N1029      H1034   1.045       .  S
N1032      H1035   1.045       .  S
N1032      H1036   1.045       .  S
