geometry optimzed in LAMMPS
_audit_creation_date              2020-11-30 
_audit_creation_method            'lammps2cif' 
_symmetry_space_group_name_H-M    'P1' 
_symmetry_Int_Tables_number       1 
_symmetry_cell_setting            triclinic 
loop_ 
_symmetry_equiv_pos_as_xyz 
  x,y,z 
_cell_length_a                    36.017019380686456 
_cell_length_b                    35.851941535210806 
_cell_length_c                    29.75257350136043 
_cell_angle_alpha                 90.47355508960956 
_cell_angle_beta                  89.45745199298702 
_cell_angle_gamma                 122.4671115369299 
loop_ 
_atom_site_label 
_atom_site_type_symbol 
_atom_site_fract_x 
_atom_site_fract_y 
_atom_site_fract_z 
_atom_site_charge 
In1        In  0.10984230  0.71177096  0.49207252     1.36870
C2          C  0.02447472  0.69014974  0.49724589     0.78270
O3          O  0.10198373  0.68570678  0.42081156    -0.60180
O4          O  0.14927561  0.68512121  0.46184494    -0.51090
C5          C  0.17510378  0.79791973  0.49460768     0.70930
O6          O  0.15840380  0.77739573  0.45847305    -0.45950
C7          C  0.11467099  0.66055632  0.55319040     0.75640
O8          O  0.04648987  0.70148823  0.46124952    -0.57810
O9          O  0.08931234  0.64581738  0.51981480    -0.47900
O10         O  0.04714885  0.69431278  0.53107282    -0.54240
C11         C  0.12918486  0.67403936  0.42503378     0.85820
O12         O  0.15511817  0.77624632  0.52924835    -0.56130
O13         O  0.13704771  0.70215418  0.55674484    -0.59420
In14       In  0.88647859  0.60981045  0.49905814     1.36870
C15         C  0.97557513  0.66829989  0.49902261     0.78270
O16         O  0.89898021  0.59616406  0.56941206    -0.60180
O17         O  0.85491816  0.54137878  0.52858563    -0.51090
C18         C  0.82426531  0.63144990  0.49939522     0.70930
O19         O  0.84360632  0.63127207  0.53421657    -0.45950
C20         C  0.87898002  0.55615144  0.43193558     0.75640
O21         O  0.95206098  0.66096778  0.46487501    -0.57810
O22         O  0.85347713  0.54268365  0.46550001    -0.47900
O23         O  0.95326746  0.65054656  0.53407616    -0.54240
C24         C  0.87543236  0.55467003  0.56518719     0.85820
O25         O  0.84031294  0.62614092  0.46414077    -0.56130
O26         O  0.90651417  0.59729854  0.43132115    -0.59420
In27       In  0.10954252  0.57065450  0.64242091     1.36870
C28         C  0.11674922  0.63043854  0.58458823     0.78270
O29         O  0.14803411  0.55569606  0.59300467    -0.60180
O30         O  0.09203988  0.50230501  0.62552852    -0.51090
C31         C  0.14156579  0.58480082  0.72531035     0.70930
O32         O  0.16521347  0.59035425  0.69120777    -0.45950
C33         C  0.02555583  0.53282539  0.65420987     0.75640
O34         O  0.13986589  0.64215228  0.61985335    -0.57810
O35         O  0.04347818  0.51083933  0.65158828    -0.47900
O36         O  0.09344943  0.58943745  0.57821691    -0.54240
C37         C  0.12134511  0.51435068  0.59583025     0.85820
O38         O  0.10393993  0.57635139  0.71618943    -0.56130
O39         O  0.05091949  0.57428367  0.65379548    -0.59420
In40       In  0.89388261  0.47178886  0.35082259     1.36870
C41         C  0.87592240  0.40045611  0.39790726     0.78270
O42         O  0.95373200  0.47100792  0.33706909    -0.60180
O43         O  0.95983508  0.52519748  0.37423989    -0.51090
C44         C  0.86713940  0.45957684  0.26587694     0.70930
O45         O  0.84192147  0.43953683  0.29876921    -0.45950
C46         C  0.87997774  0.52595594  0.39906815     0.75640
O47         O  0.89989717  0.41336630  0.36342146    -0.57810
O48         O  0.90933766  0.53950475  0.36905205    -0.47900
O49         O  0.85752776  0.42136790  0.40629797    -0.54240
C50         C  0.97841963  0.50734768  0.35654716     0.85820
O51         O  0.90509555  0.49004800  0.27672540    -0.56130
O52         O  0.85474589  0.48441379  0.40144879    -0.59420
In53       In  0.69407730  0.12502721  0.49618351     1.36870
C54         C  0.64018485  0.13097039  0.43935315     0.78270
O55         O  0.66793860  0.06041940  0.45731756    -0.60180
O56         O  0.69181451  0.06337049  0.52220032    -0.51090
C57         C  0.77896370  0.19443137  0.49377900     0.70930
O58         O  0.75719202  0.17528590  0.45894482    -0.45950
C59         C  0.65505965  0.13527872  0.56726447     0.75640
O60         O  0.67966765  0.14521506  0.42874984    -0.57810
O61         O  0.66293904  0.10503017  0.56483547    -0.47900
O62         O  0.62902336  0.11388477  0.47766790    -0.54240
C63         C  0.67103532  0.03924027  0.48901368     0.85820
O64         O  0.75943192  0.17509220  0.52956749    -0.56130
O65         O  0.67170447  0.16326304  0.53603661    -0.59420
In66       In  0.58869346  0.90051635  0.49426103     1.36870
C67         C  0.64695081  0.98991177  0.48914229     0.78270
O68         O  0.57224284  0.90465587  0.42215480    -0.60180
O69         O  0.51953439  0.86558511  0.46734111    -0.51090
C70         C  0.61421863  0.84229404  0.49819788     0.70930
O71         O  0.61087870  0.85775346  0.46178456    -0.45950
C72         C  0.53302500  0.88947175  0.56061364     0.75640
O73         O  0.62152013  0.96670860  0.45786159    -0.57810
O74         O  0.52375819  0.86026122  0.53135435    -0.47900
O75         O  0.64575126  0.96720879  0.52203135    -0.54240
C76         C  0.53111582  0.88180426  0.42864016     0.85820
O77         O  0.61079171  0.86103854  0.53233334    -0.56130
O78         O  0.57148951  0.92323229  0.55749999    -0.59420
In79       In  0.54232100  0.11548217  0.35606661     1.36870
C80         C  0.50539672  0.03090233  0.34643668     0.78270
O81         O  0.61541216  0.14646286  0.37054249    -0.60180
O82         O  0.56806406  0.11178328  0.42209971    -0.51090
C83         C  0.55718146  0.14656821  0.27310132     0.70930
O84         O  0.55321179  0.11061334  0.28249257    -0.45950
C85         C  0.48850836  0.13035617  0.40297135     0.75640
O86         O  0.48403652  0.04904680  0.34047899    -0.57810
O87         O  0.52943273  0.15851938  0.40095691    -0.47900
O88         O  0.54528897  0.05603696  0.35625079    -0.54240
C89         C  0.60770376  0.13091950  0.40993578     0.85820
O90         O  0.55484553  0.16705744  0.30661549    -0.56130
O91         O  0.47522146  0.09652660  0.37883378    -0.59420
In92       In  0.44109806  0.89624062  0.63665889     1.36870
C93         C  0.48172340  0.98221433  0.63449415     0.78270
O94         O  0.51031701  0.91814106  0.61907719    -0.60180
O95         O  0.45987013  0.85732025  0.59137636    -0.51090
C96         C  0.42234429  0.86276520  0.71939741     0.70930
O97         O  0.45945758  0.89427296  0.70714981    -0.45950
C98         C  0.37152874  0.88425938  0.59364731     0.75640
O99         O  0.47124704  0.96085781  0.67075494    -0.57810
O100        O  0.38771884  0.86120587  0.58500561    -0.47900
O101        O  0.47017233  0.95950377  0.59893472    -0.54240
C102        C  0.50036738  0.88718758  0.59213514     0.85820
O103        O  0.39487252  0.84512372  0.68795864    -0.56130
O104        O  0.38781013  0.90958926  0.62711044    -0.59420
In105      In  0.54712607  0.47282644  0.35529416     1.36870
C106        C  0.51563104  0.52237088  0.36131592     0.78270
O107        O  0.47802150  0.42160453  0.37642318    -0.60180
O108        O  0.52886807  0.41217006  0.39603696    -0.51090
C109        C  0.55207669  0.44997726  0.27185840     0.70930
O110        O  0.51804963  0.44740421  0.28651110    -0.45950
C111        C  0.62045565  0.52463863  0.40148946     0.75640
O112        O  0.53563771  0.52188777  0.32661284    -0.57810
O113        O  0.59725230  0.48332707  0.40674385    -0.47900
O114        O  0.51441371  0.49980987  0.39413979    -0.54240
C115        C  0.48872412  0.39935724  0.39901732     0.85820
O116        O  0.58350612  0.46544402  0.29928231    -0.56130
O117        O  0.60867732  0.53891117  0.36971062    -0.59420
In118      In  0.44149441  0.57454698  0.35802117     1.36870
C119        C  0.49211625  0.54418072  0.36181795     0.78270
O120        O  0.50854732  0.63477339  0.36947173    -0.60180
O121        O  0.45659455  0.62382110  0.41310381    -0.51090
C122        C  0.42617864  0.58395637  0.27403826     0.70930
O123        O  0.42446154  0.55028261  0.28829543    -0.45950
C124        C  0.36900507  0.51156262  0.39890002     0.75640
O125        O  0.49056923  0.56360201  0.32754519    -0.57810
O126        O  0.37976018  0.55145940  0.39914513    -0.47900
O127        O  0.46925108  0.54209688  0.39514743    -0.54240
C128        C  0.49742235  0.64556035  0.40494982     0.85820
O129        O  0.43148030  0.61159954  0.30399555    -0.56130
O130        O  0.39233397  0.50361332  0.37403477    -0.59420
In131      In  0.43404415  0.56774227  0.64530704     1.36870
C132        C  0.47516307  0.52645221  0.64180546     0.78270
O133        O  0.37377023  0.50001191  0.63273439    -0.60180
O134        O  0.38295079  0.55280417  0.59279852    -0.51090
C135        C  0.42219922  0.58397193  0.72991324     0.70930
O136        O  0.41824288  0.54864710  0.71726731    -0.45950
C137        C  0.49804973  0.64036443  0.60446755     0.75640
O138        O  0.46724270  0.53925949  0.67801279    -0.57810
O139        O  0.45794751  0.62762965  0.60144130    -0.47900
O140        O  0.46234600  0.53508813  0.60635068    -0.54240
C141        C  0.36177944  0.51169516  0.59911620     0.85820
O142        O  0.42696249  0.60921916  0.69795094    -0.56130
O143        O  0.50576604  0.61890931  0.63192480    -0.59420
In144      In  0.29227545  0.42357624  0.49800248     1.36870
C145        C  0.32572576  0.37078827  0.50290130     0.78270
O146        O  0.32759015  0.43900466  0.43092953    -0.60180
O147        O  0.31965300  0.48795045  0.46129221    -0.51090
C148        C  0.20704457  0.39853395  0.49747267     0.70930
O149        O  0.22825486  0.40224921  0.46214859    -0.45950
C150        C  0.33122711  0.47986757  0.56590451     0.75640
O151        O  0.29000584  0.35809588  0.48263555    -0.57810
O152        O  0.32879818  0.49193722  0.52705923    -0.47900
O153        O  0.34173376  0.40793777  0.52135300    -0.54240
C154        C  0.33649634  0.47817795  0.42987397     0.85820
O155        O  0.22678729  0.40040439  0.53294902    -0.56130
O156        O  0.31030712  0.43844735  0.57144556    -0.59420
In157      In  0.40695827  0.31894959  0.50051539     1.36870
C158        C  0.35021629  0.34773682  0.50389514     0.78270
O159        O  0.42102725  0.34141243  0.57322772    -0.60180
O160        O  0.47508256  0.36044591  0.52920384    -0.51090
C161        C  0.38576878  0.23340031  0.50143817     0.70930
O162        O  0.38702052  0.25401501  0.53649758    -0.45950
C163        C  0.45802808  0.36543522  0.43083530     0.75640
O164        O  0.34021227  0.31241171  0.48338284    -0.57810
O165        O  0.47076731  0.35084998  0.46134840    -0.47900
O166        O  0.38618039  0.36495877  0.52424039    -0.54240
C167        C  0.46231120  0.36431847  0.56752960     0.85820
O168        O  0.38969515  0.25417270  0.46598351    -0.56130
O169        O  0.41795298  0.35269829  0.43339622    -0.59420
In170      In  0.54686813  0.47085541  0.64748307     1.36870
C171        C  0.49888829  0.50468587  0.64207016     0.78270
O172        O  0.59853977  0.53929183  0.62629229    -0.60180
O173        O  0.60950160  0.48811781  0.61062066    -0.51090
C174        C  0.55714075  0.46178721  0.73426170     0.70930
O175        O  0.56685564  0.49810483  0.71794808    -0.45950
C176        C  0.49286822  0.39761972  0.60010984     0.75640
O177        O  0.50493009  0.49099433  0.67826108    -0.57810
O178        O  0.53400424  0.41995653  0.59422748    -0.47900
O179        O  0.51612797  0.49964222  0.60740644    -0.54240
C180        C  0.62174374  0.52811656  0.60581441     0.85820
O181        O  0.54776673  0.43208508  0.70517868    -0.56130
O182        O  0.47984132  0.40990767  0.63310501    -0.59420
In183      In  0.58629369  0.71517677  0.50456546     1.36870
C184        C  0.63893104  0.68223061  0.50084596     0.78270
O185        O  0.57122664  0.68259716  0.57320836    -0.60180
O186        O  0.52242153  0.68897667  0.54180931    -0.51090
C187        C  0.61376536  0.80094776  0.50077965     0.70930
O188        O  0.61070314  0.77877835  0.46642574    -0.45950
C189        C  0.52986323  0.67578775  0.43763294     0.75640
O190        O  0.65362681  0.72142215  0.51400880    -0.57810
O191        O  0.51849332  0.68107288  0.47598992    -0.47900
O192        O  0.59929307  0.66194212  0.48907393    -0.54240
C193        C  0.53194656  0.67293759  0.57371580     0.85820
O194        O  0.60926836  0.78141975  0.53736707    -0.56130
O195        O  0.57085225  0.69372918  0.43204286    -0.59420
In196      In  0.69742009  0.60751581  0.50227515     1.36870
C197        C  0.66311652  0.65910405  0.50034575     0.78270
O198        O  0.67629310  0.59579405  0.42980049    -0.60180
O199        O  0.65838173  0.54019808  0.47095836    -0.51090
C200        C  0.78269711  0.63102877  0.50016687     0.70930
O201        O  0.76284423  0.62918410  0.53597698    -0.45950
C202        C  0.65543617  0.55794349  0.57351045     0.75640
O203        O  0.70330236  0.67550179  0.50981312    -0.57810
O204        O  0.66744380  0.54392506  0.54113414    -0.47900
O205        O  0.64287327  0.61868349  0.49101925    -0.54240
C206        C  0.65404093  0.55420456  0.43390716     0.85820
O207        O  0.76114491  0.62663928  0.46524815    -0.56130
O208        O  0.66942689  0.59857039  0.57199512    -0.59420
C209        C  0.59567106  0.40887010  0.90074246    -0.01800
C210        C  0.57218856  0.22297125  0.89538128    -0.01800
C211        C  0.75722662  0.40268911  0.89076426    -0.01800
C212        C  0.59469784  0.22537105  0.09096903    -0.01800
C213        C  0.76372323  0.39306541  0.10118629    -0.01800
C214        C  0.59445570  0.38707623  0.10968839    -0.01800
C215        C  0.39102774  0.62955502  0.90620659    -0.01800
C216        C  0.36826707  0.78210304  0.89029213    -0.01800
C217        C  0.21647961  0.60653748  0.89390771    -0.01800
C218        C  0.38809578  0.62482867  0.09907307    -0.01800
C219        C  0.21633050  0.61215602  0.09484748    -0.01800
C220        C  0.37166391  0.78139176  0.09920127    -0.01800
In221      In  0.10842829  0.42619269  0.49788612     1.36870
C222        C  0.02009585  0.36668024  0.49785965     0.78270
O223        O  0.09187907  0.44176760  0.56582066    -0.60180
O224        O  0.14498064  0.49430011  0.52959743    -0.51090
C225        C  0.16665087  0.39996612  0.49743777     0.70930
O226        O  0.15066945  0.40478851  0.46227752    -0.45950
C227        C  0.11813101  0.48185094  0.43256061     0.75640
O228        O  0.04216301  0.38247307  0.53334356    -0.57810
O229        O  0.14611575  0.49311529  0.46323042    -0.47900
O230        O  0.04360833  0.37697674  0.46284152    -0.54240
C231        C  0.12047100  0.48261395  0.56380521     0.85820
O232        O  0.14909555  0.40314240  0.53269947    -0.56130
O233        O  0.08701949  0.44186882  0.43379639    -0.59420
In234      In  0.88735677  0.32499759  0.49364633     1.36870
C235        C  0.88660879  0.37868910  0.55615784     0.78270
O236        O  0.94822603  0.33769568  0.53147746    -0.60180
O237        O  0.94983443  0.33502325  0.46087330    -0.51090
C238        C  0.82089743  0.23842423  0.49304502     0.71590
O239        O  0.84209928  0.25829524  0.52795495    -0.45950
C240        C  0.87467742  0.36797861  0.42869544     0.75640
O241        O  0.85929918  0.33740949  0.55727170    -0.57810
O242        O  0.89979302  0.35372162  0.42397017    -0.47900
O243        O  0.91429976  0.39146408  0.52464475    -0.54240
C244        C  0.97127437  0.34412221  0.49682130     0.85820
O245        O  0.83606431  0.26137696  0.45799018    -0.56130
O246        O  0.85247702  0.35623827  0.46454220    -0.59420
In247      In  0.89462844  0.47284158  0.64381409     1.36870
C248        C  0.88697169  0.41067327  0.58759525     0.78270
O249        O  0.85568871  0.48322864  0.59167874    -0.60180
O250        O  0.90251915  0.53836882  0.63010357    -0.51090
C251        C  0.86235875  0.45287554  0.72686752     0.70930
O252        O  0.83855645  0.44143413  0.69221771    -0.45950
C253        C  0.97867789  0.51174149  0.65396626     0.75640
O254        O  0.86202640  0.40071393  0.62156315    -0.57810
O255        O  0.96075299  0.53332473  0.64780003    -0.47900
O256        O  0.91369231  0.45146476  0.58216738    -0.54240
C257        C  0.87652264  0.52450295  0.59741353     0.85820
O258        O  0.90282945  0.47578233  0.71910235    -0.56130
O259        O  0.95335647  0.47035593  0.65674320    -0.59420
In260      In  0.11065322  0.56938183  0.34958636     1.36870
C261        C  0.13155015  0.64368265  0.39318350     0.78270
O262        O  0.05022436  0.56476677  0.37529395    -0.60180
O263        O  0.04387770  0.51146036  0.33633209    -0.51090
C264        C  0.13243002  0.57415678  0.26238514     0.70930
O265        O  0.15689794  0.57540762  0.29329618    -0.45950
C266        C  0.11876765  0.51307659  0.40043979     0.75640
O267        O  0.11020583  0.63181944  0.35706233    -0.57810
O268        O  0.08635350  0.50169024  0.37561850    -0.47900
O269        O  0.14837226  0.62171907  0.40319540    -0.54240
C270        C  0.02527020  0.52810414  0.35657707     0.85820
O271        O  0.09997731  0.57482251  0.27648082    -0.56130
O272        O  0.14930074  0.55339617  0.39746626    -0.59420
In273      In  0.40631616  0.12804184  0.50111514     1.36870
C274        C  0.34579752  0.03955418  0.49934110     0.78270
O275        O  0.41799177  0.10574641  0.43470201    -0.60180
O276        O  0.47250914  0.16145185  0.46606662    -0.51090
C277        C  0.38590578  0.19174667  0.50170604     0.70930
O278        O  0.38860327  0.17407166  0.53681450    -0.45950
C279        C  0.46190814  0.13390670  0.56422945     0.75640
O280        O  0.35813932  0.06187573  0.53528337    -0.57810
O281        O  0.47447784  0.15853270  0.53023711    -0.47900
O282        O  0.35902279  0.06311876  0.46449346    -0.54240
C283        C  0.45887296  0.13366676  0.43438222     0.85820
O284        O  0.38862357  0.17366402  0.46656536    -0.56130
O285        O  0.42068306  0.10899073  0.56823216    -0.59420
In286      In  0.30380994  0.90544089  0.49797699     1.36870
C287        C  0.32402698  0.99048888  0.49812971     0.78270
O288        O  0.33253685  0.91641080  0.56721664    -0.60180
O289        O  0.32668615  0.86369949  0.52828450    -0.51090
C290        C  0.21790674  0.84056982  0.49636498     0.70930
O291        O  0.23878294  0.86170999  0.46175006    -0.45950
C292        C  0.35689124  0.90041208  0.43759950     0.75640
O293        O  0.31410370  0.96737850  0.53306174    -0.57810
O294        O  0.37050733  0.92752838  0.46981751    -0.47900
O295        O  0.31898230  0.96890444  0.46253350    -0.54240
C296        C  0.34122273  0.88681765  0.56336841     0.85820
O297        O  0.23922948  0.85590909  0.53223271    -0.56130
O298        O  0.31554539  0.87722848  0.43400105    -0.59420
In299      In  0.54791419  0.11549433  0.63810882     1.36870
C300        C  0.62217673  0.13299048  0.59829178     0.78270
O301        O  0.52314637  0.05136230  0.66984862    -0.60180
O302        O  0.51140316  0.05221339  0.59952977    -0.51090
C303        C  0.55632051  0.14415236  0.72185813     0.70930
O304        O  0.58040225  0.16930877  0.69051237    -0.45950
C305        C  0.49286520  0.13107327  0.59369701     0.75640
O306        O  0.60053400  0.10099778  0.62451685    -0.57810
O307        O  0.48043737  0.10361227  0.62508597    -0.47900
O308        O  0.60872684  0.15888680  0.59608694    -0.54240
C309        C  0.50593903  0.02978479  0.63435429     0.85820
O310        O  0.52930113  0.10515711  0.71025507    -0.56130
O311        O  0.53377928  0.15289711  0.58701334    -0.59420
In312      In  0.44827745  0.89943772  0.35265051     1.36870
C313        C  0.38775057  0.89671966  0.40790341     0.78270
O314        O  0.45875752  0.85976515  0.40398663    -0.60180
O315        O  0.51251953  0.90505806  0.36287590    -0.51090
C316        C  0.43204905  0.87022538  0.26852226     0.70930
O317        O  0.41009933  0.84581429  0.30139447    -0.45950
C318        C  0.48541907  0.98401506  0.34502363     0.75640
O319        O  0.37678473  0.87166686  0.37380578    -0.57810
O320        O  0.50575356  0.96678139  0.35883870    -0.47900
O321        O  0.42848260  0.91979377  0.41491219    -0.54240
C322        C  0.49970316  0.88031781  0.39660938     0.85820
O323        O  0.46369812  0.90789198  0.27917464    -0.56130
O324        O  0.44630895  0.95782221  0.33260501    -0.59420
C325        C  0.38926459  0.82212846  0.13311413    -0.04650
C326        C  0.36135879  0.82694266  0.16458008    -0.01770
C327        C  0.37592537  0.84276697  0.20857990     0.03220
C328        C  0.41902962  0.85757700  0.22104085    -0.04650
C329        C  0.44971582  0.86536249  0.18695169    -0.01760
C330        C  0.43510387  0.84997091  0.14263030     0.03220
C331        C  0.31806169  0.81773616  0.15437132     0.37870
C332        C  0.49617197  0.88803900  0.19753148     0.37860
C333        C  0.46675740  0.87231533  0.10702238     0.36280
C334        C  0.34626765  0.84403430  0.24138660     0.36280
N335        N  0.49315614  0.89429612  0.08047370    -0.38540
N336        N  0.32272265  0.84502409  0.26741466    -0.38540
N337        N  0.53320861  0.90602589  0.20603097    -0.37980
N338        N  0.28335636  0.81209806  0.15138068    -0.37990
C339        C  0.17591282  0.58319738  0.12656618    -0.04650
C340        C  0.14586961  0.59608907  0.13628566    -0.01770
C341        C  0.12974900  0.59217114  0.18057808     0.03220
C342        C  0.14021821  0.57103082  0.21357337    -0.04650
C343        C  0.15584504  0.54441091  0.19857159    -0.01760
C344        C  0.17149345  0.54869262  0.15396858     0.03220
C345        C  0.12715428  0.60733033  0.10017094     0.37870
C346        C  0.15672852  0.51347849  0.22897720     0.37860
C347        C  0.18192837  0.51735094  0.13695374     0.36280
C348        C  0.10506890  0.61218976  0.19218842     0.36280
N349        N  0.18970342  0.49168262  0.12412988    -0.38540
N350        N  0.08546246  0.62831287  0.20136705    -0.38540
N351        N  0.15756602  0.48891516  0.25329405    -0.37980
N352        N  0.10987796  0.61367564  0.07135858    -0.37990
C353        C  0.23815082  0.66370946  0.11043379    -0.04650
C354        C  0.24330600  0.69980944  0.08476788    -0.01770
C355        C  0.28530959  0.74084583  0.08430923     0.03220
C356        C  0.32042968  0.74554476  0.11070693    -0.04650
C357        C  0.30345114  0.71892587  0.15095472    -0.01760
C358        C  0.26003110  0.68046554  0.15122190     0.03220
C359        C  0.20512857  0.70070076  0.07283144     0.37870
C360        C  0.32217419  0.73515359  0.19500502     0.37860
C361        C  0.23264565  0.67357204  0.19028803     0.36280
C362        C  0.28923160  0.78038472  0.06640662     0.36280
N363        N  0.21264382  0.67067945  0.22218825    -0.38540
N364        N  0.29231479  0.81209866  0.05267418    -0.38540
N365        N  0.33321266  0.74540080  0.23187255    -0.37980
N366        N  0.17635754  0.70519788  0.06501075    -0.37990
C367        C  0.39680663  0.75535782  0.10947064    -0.04650
C368        C  0.39243560  0.73230824  0.14951241    -0.01770
C369        C  0.39087245  0.69132176  0.14804943     0.03220
C370        C  0.40272637  0.67696684  0.10769999    -0.04650
C371        C  0.43137289  0.71552398  0.08064104    -0.01760
C372        C  0.42947772  0.75490936  0.08334771     0.03220
C373        C  0.41242957  0.75923996  0.18934997     0.37870
C374        C  0.47102339  0.72293277  0.05995164     0.37860
C375        C  0.46576368  0.79556220  0.06495699     0.36280
C376        C  0.38950148  0.67278854  0.19158407     0.36280
N377        N  0.49831015  0.82538169  0.05122662    -0.38540
N378        N  0.38959252  0.66146424  0.22789643    -0.38540
N379        N  0.50583044  0.73487801  0.04616584    -0.37980
N380        N  0.42930416  0.77841569  0.22203403    -0.37990
C381        C  0.33395105  0.59749929  0.10490563    -0.04650
C382        C  0.30088169  0.57260176  0.07196515    -0.01770
C383        C  0.26366718  0.57689599  0.06769956     0.03220
C384        C  0.25360319  0.59965458  0.10112865    -0.04650
C385        C  0.27670991  0.60523817  0.14275000    -0.01760
C386        C  0.31313295  0.59970197  0.14457594     0.03220
C387        C  0.29335530  0.53098573  0.05523846     0.37870
C388        C  0.26056541  0.60853569  0.18648343     0.37860
C389        C  0.31756696  0.58086258  0.18566469     0.36280
C390        C  0.23266654  0.54893732  0.03342137     0.36280
N391        N  0.31803940  0.56520745  0.21936313    -0.38540
N392        N  0.21107576  0.52327718  0.00618336    -0.38540
N393        N  0.25069524  0.61006053  0.22329104    -0.37980
N394        N  0.28310092  0.49655249  0.04109701    -0.37990
C395        C  0.19795134  0.60488186  0.94411398    -0.04650
C396        C  0.16817594  0.56603195  0.97028964    -0.01770
C397        C  0.16608203  0.56894056  0.01943460     0.03220
C398        C  0.20123250  0.60707914  0.04286973    -0.04650
C399        C  0.23013718  0.64024634  0.01304361    -0.01760
C400        C  0.21588275  0.64335910  0.97031354     0.03220
C401        C  0.14065755  0.52382175  0.94836629     0.37870
C402        C  0.27509954  0.66199841  0.02464523     0.37860
C403        C  0.18535661  0.65775011  0.97387224     0.36280
C404        C  0.13274344  0.53078797  0.04413211     0.36280
N405        N  0.15997820  0.66805776  0.97678903    -0.38540
N406        N  0.10566327  0.49999594  0.06331242    -0.38540
N407        N  0.30675208  0.67414184  0.04468626    -0.37980
N408        N  0.11785124  0.48946213  0.93209824    -0.37990
C409        C  0.31855278  0.74680368  0.86918006    -0.04650
C410        C  0.27708618  0.73743656  0.88536265    -0.01770
C411        C  0.23907552  0.69254640  0.88522731     0.03220
C412        C  0.24336810  0.65637858  0.87247134    -0.04650
C413        C  0.27684359  0.67008197  0.83907973    -0.01760
C414        C  0.31018939  0.71604004  0.83384757     0.03220
C415        C  0.26975136  0.77306543  0.89161019     0.37870
C416        C  0.27447615  0.63898947  0.80646412     0.37860
C417        C  0.32145327  0.73264748  0.78841236     0.36280
C418        C  0.19642918  0.68708926  0.88153942     0.36280
N419        N  0.32893231  0.74474515  0.75156113    -0.38540
N420        N  0.16371032  0.68558647  0.87753003    -0.38540
N421        N  0.27355712  0.61527875  0.77927521    -0.37980
N422        N  0.25980439  0.79847707  0.89784088    -0.37990
C423        C  0.37520369  0.79440680  0.04511035    -0.04650
C424        C  0.35550802  0.75933868  0.01455624    -0.01770
C425        C  0.33755826  0.76320852  0.97466006     0.03220
C426        C  0.36620499  0.79544774  0.94388931    -0.04650
C427        C  0.39289723  0.83620436  0.96988655    -0.01760
C428        C  0.39242177  0.83579749  0.02034086     0.03220
C429        C  0.37904846  0.73900334  0.00751703     0.37870
C430        C  0.41725446  0.87795688  0.94680990     0.37860
C431        C  0.40476068  0.87599253  0.04411686     0.36280
C432        C  0.29350926  0.75319459  0.97798715     0.36280
N433        N  0.41389663  0.90837312  0.06256207    -0.38540
N434        N  0.25816436  0.74583574  0.98128324    -0.38540
N435        N  0.43666219  0.91181139  0.92887053    -0.37980
N436        N  0.39852786  0.72262376  0.00162634    -0.37990
C437        C  0.40166696  0.67947244  0.89697398    -0.04650
C438        C  0.42916077  0.71980593  0.92181075    -0.01770
C439        C  0.42377760  0.75703317  0.91802458     0.03220
C440        C  0.39541724  0.75728147  0.88580570    -0.04650
C441        C  0.39160131  0.73016501  0.84895987    -0.01760
C442        C  0.38613691  0.68836278  0.85638209     0.03220
C443        C  0.46905102  0.72961023  0.94315228     0.37870
C444        C  0.40771915  0.74959023  0.80505526     0.37860
C445        C  0.37134690  0.65880305  0.81801743     0.36280
C446        C  0.45093959  0.79636563  0.94458788     0.36280
N447        N  0.36151749  0.63768743  0.78553198    -0.38540
N448        N  0.47275676  0.82742950  0.96632347    -0.38540
N449        N  0.42101812  0.76271450  0.76929342    -0.37980
N450        N  0.50409506  0.74341939  0.95671482    -0.37990
C451        C  0.25163545  0.59231217  0.90089802    -0.04650
C452        C  0.26012767  0.56311605  0.87635588    -0.01770
C453        C  0.30544387  0.57505045  0.87156345     0.03220
C454        C  0.33764513  0.60250620  0.90545874    -0.04650
C455        C  0.31667820  0.60918865  0.94238088    -0.01760
C456        C  0.28306392  0.61539205  0.93355444     0.03220
C457        C  0.23038595  0.51663307  0.88515404     0.37870
C458        C  0.33703274  0.62688707  0.98461965     0.37860
C459        C  0.30106748  0.66005732  0.93437370     0.36280
C460        C  0.31353271  0.55282402  0.83603827     0.36280
N461        N  0.32386999  0.69683596  0.93164645    -0.38540
N462        N  0.31563316  0.53309325  0.80624613    -0.38540
N463        N  0.35318059  0.64200242  0.01842420    -0.37980
N464        N  0.20874217  0.47953030  0.89432354    -0.37990
C465        C  0.40349838  0.61458625  0.05029281    -0.04650
C466        C  0.37901479  0.57467491  0.02570801    -0.01770
C467        C  0.37399018  0.57679464  0.97850041     0.03220
C468        C  0.40339874  0.61736944  0.95435748    -0.04650
C469        C  0.44408019  0.64215183  0.97771747    -0.01760
C470        C  0.44424914  0.63988881  0.02667821     0.03220
C471        C  0.38269659  0.53812535  0.03922026     0.37870
C472        C  0.48365195  0.65499865  0.95239678     0.37860
C473        C  0.48284651  0.64604589  0.04872307     0.36280
C474        C  0.33841811  0.53726461  0.95707850     0.36280
N475        N  0.51372584  0.65024537  0.06554405    -0.38540
N476        N  0.30999188  0.50547462  0.94040809    -0.38540
N477        N  0.51527515  0.66458981  0.93239761    -0.37980
N478        N  0.38680222  0.50917071  0.04816244    -0.37990
C479        C  0.73282940  0.41374935  0.11703952    -0.04650
C480        C  0.70996816  0.40634854  0.15911729    -0.01770
C481        C  0.66827552  0.40514537  0.16102037     0.03220
C482        C  0.64860942  0.40865081  0.12050382    -0.04650
C483        C  0.68636134  0.44486966  0.09851830    -0.01760
C484        C  0.72832369  0.44706674  0.09590130     0.03220
C485        C  0.73963125  0.42920129  0.19666284     0.37870
C486        C  0.68602693  0.48363701  0.08601546     0.37860
C487        C  0.76731187  0.49117919  0.09353210     0.36280
C488        C  0.66621572  0.43090187  0.19825421     0.36280
N489        N  0.79624910  0.52776061  0.09253515    -0.38540
N490        N  0.66641427  0.45260453  0.22742406    -0.38540
N491        N  0.68965936  0.51658147  0.07609870    -0.37980
N492        N  0.76258793  0.44857916  0.22650433    -0.37990
C493        C  0.56684514  0.33258453  0.10608159    -0.04650
C494        C  0.56488736  0.31130388  0.06650410    -0.01770
C495        C  0.58900976  0.29179870  0.06882601     0.03220
C496        C  0.57487522  0.25678877  0.09770540    -0.04650
C497        C  0.54447991  0.25649642  0.13200654    -0.01760
C498        C  0.54221085  0.29625302  0.13733970     0.03220
C499        C  0.52130794  0.28502064  0.04604284     0.37870
C500        C  0.51383075  0.21750873  0.15762043     0.37860
C501        C  0.50510311  0.29264574  0.16120096     0.36280
C502        C  0.63381815  0.32287764  0.07093500     0.36280
N503        N  0.47534183  0.28965063  0.18000211    -0.38540
N504        N  0.66994556  0.34991316  0.07275755    -0.38540
N505        N  0.48887504  0.18672115  0.17828377    -0.37980
N506        N  0.48677407  0.26400928  0.03007026    -0.37990
C507        C  0.65109609  0.25429202  0.08930318    -0.04650
C508        C  0.68319463  0.27299207  0.05259041    -0.01770
C509        C  0.72603117  0.31369046  0.06018754     0.03220
C510        C  0.73247141  0.33751717  0.10003646    -0.04650
C511        C  0.72032603  0.30270920  0.13272388    -0.01760
C512        C  0.67862328  0.26062090  0.12709247     0.03220
C513        C  0.68541705  0.24303187  0.02154126     0.37870
C514        C  0.75559384  0.29819931  0.15004599     0.37860
C515        C  0.67191557  0.22148413  0.14942918     0.36280
C516        C  0.76600581  0.31371893  0.04997499     0.36280
N517        N  0.66682660  0.19041080  0.16709591    -0.38540
N518        N  0.79772082  0.31365268  0.04342795    -0.38540
N519        N  0.78317835  0.29380829  0.16315109    -0.37980
N520        N  0.69168839  0.22168759  0.99708142    -0.37990
C521        C  0.78396257  0.41113349  0.94113798    -0.04650
C522        C  0.82653175  0.42973346  0.96812206    -0.01770
C523        C  0.82639662  0.42461026  0.02072401     0.03220
C524        C  0.78449970  0.40794641  0.04784907    -0.04650
C525        C  0.75531409  0.40230062  0.01529823    -0.01760
C526        C  0.75851978  0.38290502  0.97369952     0.03220
C527        C  0.86728514  0.44543001  0.94425299     0.37870
C528        C  0.75959149  0.44447409  0.00795397     0.37860
C529        C  0.75594169  0.34115834  0.96780136     0.36280
C530        C  0.86432987  0.42912327  0.04220519     0.36280
N531        N  0.75525901  0.30975842  0.95663283    -0.38540
N532        N  0.89468832  0.43254722  0.05944370    -0.38540
N533        N  0.77007760  0.48029056  0.99969438    -0.37980
N534        N  0.90018320  0.45779386  0.92549814    -0.37990
C535        C  0.78905992  0.41810892  0.84969449    -0.04650
C536        C  0.77378458  0.39690852  0.80751614    -0.01770
C537        C  0.80424350  0.39859691  0.77749794     0.03220
C538        C  0.84348195  0.43971767  0.77260884    -0.04650
C539        C  0.85756059  0.47023843  0.80893026    -0.01760
C540        C  0.83059673  0.45904272  0.84821061     0.03220
C541        C  0.74450994  0.40468039  0.78251795     0.37870
C542        C  0.89773222  0.51340093  0.80497946     0.37860
C543        C  0.84209690  0.49247672  0.88244178     0.36280
C544        C  0.78908931  0.36462041  0.74296043     0.36280
N545        N  0.85119744  0.51962013  0.90925213    -0.38540
N546        N  0.77681164  0.33747735  0.71554568    -0.38540
N547        N  0.92985774  0.54786746  0.80183135    -0.37980
N548        N  0.72625198  0.41386272  0.75748402    -0.37990
C549        C  0.54963437  0.19011105  0.85422260    -0.04650
C550        C  0.55005838  0.15085404  0.84932380    -0.01770
C551        C  0.55413214  0.13643249  0.80608612     0.03220
C552        C  0.55526720  0.15965937  0.76745344    -0.04650
C553        C  0.54582217  0.19250389  0.77187176    -0.01760
C554        C  0.53693532  0.20275466  0.81452582     0.03220
C555        C  0.53294951  0.11859265  0.88506664     0.37870
C556        C  0.54116463  0.21312382  0.73211285     0.37860
C557        C  0.50542563  0.21603688  0.81482650     0.36280
C558        C  0.55711146  0.09780591  0.80146217     0.36280
N559        N  0.47982963  0.22582529  0.81042457    -0.38540
N560        N  0.55941593  0.06694830  0.79774963    -0.38540
N561        N  0.53781936  0.22971885  0.70053410    -0.37980
N562        N  0.51819602  0.09175232  0.91271409    -0.37990
C563        C  0.55952749  0.19550507  0.94449841    -0.04650
C564        C  0.58473371  0.17923606  0.96557549    -0.01770
C565        C  0.58782476  0.17750224  0.01469864     0.03220
C566        C  0.56995647  0.19560757  0.04460771    -0.04650
C567        C  0.53288052  0.19363624  0.02362659    -0.01760
C568        C  0.52682275  0.19110846  0.97499214     0.03220
C569        C  0.61317472  0.17132616  0.93800795     0.37870
C570        C  0.49558709  0.18322693  0.05175295     0.37860
C571        C  0.48247087  0.16360378  0.95864566     0.36280
C572        C  0.60700345  0.15499726  0.03455663     0.36280
N573        N  0.44694192  0.13840053  0.94682780    -0.38540
N574        N  0.62196483  0.13672885  0.05072546    -0.38540
N575        N  0.46445274  0.17349526  0.07272972    -0.37980
N576        N  0.63590217  0.16501232  0.91590290    -0.37990
C577        C  0.62818397  0.25355893  0.88933054    -0.04650
C578        C  0.65986532  0.26876104  0.85174376    -0.01770
C579        C  0.70505591  0.31073839  0.85418620     0.03220
C580        C  0.71585591  0.34651469  0.88637464    -0.04650
C581        C  0.68234302  0.32640244  0.91946988    -0.01760
C582        C  0.65111837  0.28093787  0.92472046     0.03220
C583        C  0.65177183  0.23913998  0.81491939     0.37870
C584        C  0.67956653  0.34999451  0.95466356     0.37860
C585        C  0.63440783  0.26841305  0.96757777     0.36280
C586        C  0.74094315  0.30851187  0.83554953     0.36280
N587        N  0.62121601  0.26755262  0.00235150    -0.38540
N588        N  0.76931390  0.30496898  0.82261484    -0.38540
N589        N  0.67376944  0.35949310  0.98888316    -0.37980
N590        N  0.64904215  0.21706382  0.78496374    -0.37990
C591        C  0.64995710  0.43681820  0.89103255    -0.04650
C592        C  0.68770007  0.46691908  0.85766539    -0.01770
C593        C  0.73206255  0.46799373  0.86061922     0.03220
C594        C  0.73295228  0.43194559  0.88762450    -0.04650
C595        C  0.69002161  0.40618562  0.89574216    -0.01760
C596        C  0.67069946  0.42646647  0.92030916     0.03220
C597        C  0.68066032  0.48528116  0.81820978     0.37870
C598        C  0.67155081  0.38439329  0.85150103     0.37860
C599        C  0.69692154  0.46708196  0.94722827     0.36280
C600        C  0.76848345  0.49761136  0.83198409     0.36280
N601        N  0.71477623  0.50095144  0.96558021    -0.38540
N602        N  0.79733565  0.52174076  0.80869731    -0.38540
N603        N  0.66013797  0.37984051  0.81461849    -0.37980
N604        N  0.67631490  0.50007567  0.78575315    -0.37990
C605        C  0.55796882  0.26015186  0.89277623    -0.04650
C606        C  0.59128903  0.29994618  0.87609864    -0.01770
C607        C  0.60001869  0.33766790  0.90106484     0.03220
C608        C  0.57375162  0.35382109  0.89445022    -0.04650
C609        C  0.52812629  0.31342648  0.89525373    -0.01760
C610        C  0.52051129  0.26717426  0.89912432     0.03220
C611        C  0.59800864  0.29843552  0.82834492     0.37870
C612        C  0.49089051  0.31828108  0.89318706     0.37860
C613        C  0.47600300  0.23138366  0.90751555     0.36280
C614        C  0.59638623  0.32800416  0.94728747     0.36280
N615        N  0.43891887  0.20524470  0.91247675    -0.38540
N616        N  0.58355499  0.30912628  0.98020902    -0.38540
N617        N  0.46096931  0.32198512  0.89079697    -0.37980
N618        N  0.60380229  0.29563098  0.79040093    -0.37990
C619        C  0.58698177  0.40448871  0.05901144    -0.04650
C620        C  0.58880538  0.38248957  0.02171794    -0.01770
C621        C  0.56470679  0.37800795  0.98247908     0.03220
C622        C  0.58430894  0.41526039  0.95504525    -0.04650
C623        C  0.59264200  0.45121273  0.98757065    -0.01760
C624        C  0.59182001  0.44498967  0.03879509     0.03220
C625        C  0.63378284  0.39983612  0.01677588     0.37870
C626        C  0.59042976  0.48798841  0.97252737     0.37860
C627        C  0.59659068  0.47972955  0.06793750     0.36280
C628        C  0.51758763  0.35623506  0.98811804     0.36280
N629        N  0.60027379  0.50777604  0.09083830    -0.38540
N630        N  0.48003958  0.33960029  0.99326524    -0.38540
N631        N  0.58678438  0.51710968  0.96297466    -0.37980
N632        N  0.67129230  0.42063264  0.01739913    -0.37990
C633        C  0.55558003  0.45334975  0.78337056    -0.04650
C634        C  0.52937151  0.40994052  0.79785901    -0.01770
C635        C  0.54800106  0.39565219  0.82840004     0.03220
C636        C  0.57700860  0.42494544  0.86292745    -0.04650
C637        C  0.59394926  0.47113665  0.85560959    -0.01760
C638        C  0.58490564  0.48512066  0.81455262     0.03220
C639        C  0.49011743  0.37792583  0.77315038     0.37870
C640        C  0.62905877  0.50530720  0.88289350     0.37860
C641        C  0.60777768  0.53166006  0.80325932     0.36280
C642        C  0.55095979  0.36034890  0.80871246     0.36280
N643        N  0.62601980  0.56880083  0.79428078    -0.38540
N644        N  0.55074024  0.33245792  0.78877250    -0.38540
N645        N  0.65877980  0.53366957  0.90216351    -0.37980
N646        N  0.45898257  0.35232955  0.75351999    -0.37990
C647        C  0.42400248  0.59584842  0.77837667    -0.04650
C648        C  0.44793552  0.64053567  0.79160359    -0.01770
C649        C  0.44629900  0.65189178  0.83673042     0.03220
C650        C  0.41474992  0.61902333  0.86722656    -0.04650
C651        C  0.40557452  0.57597681  0.85782756    -0.01760
C652        C  0.40799468  0.56376719  0.81294619     0.03220
C653        C  0.47538053  0.67509324  0.75939908     0.37870
C654        C  0.40580540  0.54878632  0.89317996     0.37860
C655        C  0.39341321  0.51817421  0.80306980     0.36280
C656        C  0.47926327  0.69661066  0.85017266     0.36280
N657        N  0.38165060  0.48174838  0.79541173    -0.38540
N658        N  0.50748092  0.73279278  0.85687548    -0.38540
N659        N  0.40817181  0.52681494  0.91984609    -0.37980
N660        N  0.49726951  0.70271596  0.73392341    -0.37990
C661        C  0.40801769  0.61013300  0.13747074    -0.04650
C662        C  0.44698420  0.64134766  0.16210540    -0.01770
C663        C  0.45349119  0.63211283  0.20638882     0.03220
C664        C  0.42399548  0.59101077  0.22555569    -0.04650
C665        C  0.39421676  0.55632476  0.19769583    -0.01760
C666        C  0.38562730  0.56543107  0.15415837     0.03220
C667        C  0.48115077  0.68402319  0.14543190     0.37870
C668        C  0.36895795  0.51147170  0.21549658     0.37860
C669        C  0.34965396  0.52754719  0.13181423     0.36280
C670        C  0.49101709  0.66509296  0.23262512     0.36280
N671        N  0.32064646  0.49337193  0.12018896    -0.38540
N672        N  0.52088477  0.69118019  0.25347022    -0.38540
N673        N  0.34878064  0.47582927  0.22946701    -0.37980
N674        N  0.51169290  0.71876670  0.13803575    -0.37990
C675        C  0.55302920  0.42835394  0.23012658    -0.04650
C676        C  0.54213729  0.43589663  0.18734874    -0.01770
C677        C  0.54765149  0.41529507  0.14912026     0.03220
C678        C  0.57285871  0.39547318  0.15225831    -0.04650
C679        C  0.57390616  0.38046900  0.19729361    -0.01760
C680        C  0.56239316  0.39580356  0.23500094     0.03220
C681        C  0.52381951  0.46305974  0.18282615     0.37870
C682        C  0.58622822  0.34942061  0.20938871     0.37860
C683        C  0.56002104  0.37786886  0.27982956     0.36280
C684        C  0.51828029  0.40495012  0.11164477     0.36280
N685        N  0.55795060  0.36362095  0.31518812    -0.38540
N686        N  0.49394860  0.39640385  0.08241627    -0.38540
N687        N  0.59300051  0.32463149  0.22597341    -0.37980
N688        N  0.50922424  0.48481787  0.17917561    -0.37990
C689        C  0.41211007  0.84997818  0.76744831    -0.04650
C690        C  0.44484630  0.85325998  0.79587611    -0.01770
C691        C  0.43538009  0.84197973  0.84169538     0.03220
C692        C  0.39195449  0.82398025  0.85888150    -0.04650
C693        C  0.36644952  0.83569968  0.83427198    -0.01760
C694        C  0.37334602  0.84336196  0.78757623     0.03220
C695        C  0.48819706  0.86713270  0.77821132     0.37870
C696        C  0.34881820  0.85790621  0.85838496     0.37860
C697        C  0.34233739  0.84810914  0.76151554     0.36280
C698        C  0.47277264  0.85992278  0.87109991     0.36280
N699        N  0.31745782  0.85158452  0.74055141    -0.38540
N700        N  0.50545001  0.87832741  0.89087158    -0.38540
N701        N  0.33720866  0.87846930  0.87684087    -0.37980
N702        N  0.52276530  0.87817529  0.76439822    -0.37990
C703        C  0.56531844  0.16423189  0.22674319    -0.04650
C704        C  0.59155735  0.20992775  0.22103880    -0.01770
C705        C  0.59858224  0.22796348  0.17815955     0.03220
C706        C  0.58222869  0.20083903  0.13780288    -0.04650
C707        C  0.55470351  0.15429235  0.14445060    -0.01760
C708        C  0.54669213  0.13636217  0.18859648     0.03220
C709        C  0.61322234  0.23925472  0.25939192     0.37870
C710        C  0.53164964  0.12411457  0.10764997     0.37860
C711        C  0.51759042  0.08899924  0.19485381     0.36280
C712        C  0.62411367  0.27581721  0.17619784     0.36280
N713        N  0.49432271  0.05122896  0.19979160    -0.38540
N714        N  0.64571637  0.31366973  0.17232721    -0.38540
N715        N  0.51207116  0.09880122  0.07937060    -0.37980
N716        N  0.63049520  0.26276093  0.28958685    -0.37990
C717        C  0.85325169  0.44464958  0.21894901    -0.04650
C718        C  0.86100982  0.47298623  0.18270621    -0.01770
C719        C  0.83669852  0.45529602  0.14196573     0.03220
C720        C  0.79956397  0.41016301  0.13989801    -0.04650
C721        C  0.79207599  0.38590586  0.18121864    -0.01760
C722        C  0.82574682  0.39951256  0.21190935     0.03220
C723        C  0.89310381  0.51993058  0.18758372     0.37870
C724        C  0.74978604  0.35875106  0.20389698     0.37860
C725        C  0.82440935  0.36800291  0.24359739     0.36280
C726        C  0.84962233  0.48534128  0.10459374     0.36280
N727        N  0.82318285  0.34298774  0.26886781    -0.38540
N728        N  0.86271335  0.51061202  0.07545828    -0.38540
N729        N  0.71841914  0.33766481  0.22556838    -0.37980
N730        N  0.91883160  0.55739509  0.19147155    -0.37990
C731        C  0.15432373  0.58328652  0.77230540    -0.04650
C732        C  0.17581920  0.56086723  0.78150609    -0.01770
C733        C  0.18030452  0.55176389  0.82634822     0.03220
C734        C  0.17763233  0.57739236  0.86091692    -0.04650
C735        C  0.14599009  0.58842566  0.85354838    -0.01760
C736        C  0.13595617  0.59363185  0.80910979     0.03220
C737        C  0.18519447  0.53920571  0.74571621     0.37870
C738        C  0.11964797  0.58821582  0.89068886     0.37860
C739        C  0.10687307  0.60936403  0.80185133     0.36280
C740        C  0.15743001  0.50481670  0.83465878     0.36280
N741        N  0.08355622  0.62183095  0.79626801    -0.38540
N742        N  0.13750287  0.46683169  0.83931005    -0.38540
N743        N  0.09738797  0.58692020  0.91974130    -0.37980
N744        N  0.19263345  0.52185918  0.71729496    -0.37990
loop_ 
_geom_bond_atom_site_label_1 
_geom_bond_atom_site_label_2 
_geom_bond_distance 
_geom_bond_site_symmetry_2 
_ccdc_geom_bond_type 
In1           O3   2.268       .  S
In1           O4   2.271       .  S
In1          O12   2.274       .  S
In1           O6   2.276       .  S
In1           O8   2.305       .  S
In1           O9   2.228       .  S
In1          O10   2.298       .  S
In1          O13   2.278       .  S
C2            O8   1.259       .  A
C2           O10   1.259       .  A
C2           C15   1.495   1_455  S
O3           C11   1.262       .  A
O4           C11   1.257       .  A
C5           O12   1.258       .  A
C5            O6   1.258       .  A
C5          C290   1.479       .  S
C7            O9   1.261       .  A
C7           O13   1.262       .  A
C7           C28   1.466       .  S
C11         C261   1.473       .  S
In14         O16   2.257       .  S
In14         O17   2.260       .  S
In14         O25   2.297       .  S
In14         O19   2.303       .  S
In14         O21   2.305       .  S
In14         O22   2.261       .  S
In14         O23   2.292       .  S
In14         O26   2.256       .  S
C15          O21   1.262       .  A
C15          O23   1.259       .  A
O16          C24   1.262       .  A
O17          C24   1.260       .  A
C18          O25   1.255       .  A
C18          O19   1.256       .  A
C18         C200   1.489       .  S
C20          O22   1.260       .  A
C20          O26   1.261       .  A
C20          C46   1.467       .  S
C24         C257   1.468       .  S
In27         O29   2.262       .  S
In27         O30   2.232       .  S
In27         O38   2.220       .  S
In27         O32   2.268       .  S
In27         O34   2.285       .  S
In27         O35   2.203       .  S
In27         O36   2.214       .  S
In27         O39   2.207       .  S
C28          O34   1.267       .  A
C28          O36   1.255       .  A
O29          C37   1.265       .  A
O30          C37   1.257       .  A
C31          O38   1.252       .  A
C31          O32   1.265       .  A
C31         C731   1.486       .  S
C33          O35   1.260       .  A
C33          O39   1.259       .  A
C33         C253   1.432   1_455  S
C37         C231   1.466       .  S
In40         O42   2.205       .  S
In40         O43   2.218       .  S
In40         O51   2.275       .  S
In40         O45   2.223       .  S
In40         O47   2.253       .  S
In40         O48   2.243       .  S
In40         O49   2.275       .  S
In40         O52   2.257       .  S
C41          O47   1.255       .  A
C41          O49   1.261       .  A
C41         C240   1.469       .  S
O42          C50   1.256       .  A
O43          C50   1.258       .  A
C44          O51   1.251       .  A
C44          O45   1.262       .  A
C44         C717   1.483       .  S
C46          O48   1.261       .  A
C46          O52   1.264       .  A
C50         C270   1.433   1_655  S
In53         O55   2.286       .  S
In53         O56   2.308       .  S
In53         O64   2.286       .  S
In53         O58   2.287       .  S
In53         O60   2.295       .  S
In53         O61   2.250       .  S
In53         O62   2.229       .  S
In53         O65   2.253       .  S
C54          O60   1.264       .  A
C54          O62   1.255       .  A
C54          C89   1.467       .  S
O55          C63   1.258       .  A
O56          C63   1.260       .  A
C57          O64   1.258       .  A
C57          O58   1.259       .  A
C57         C238   1.487       .  S
C59          O61   1.261       .  A
C59          O65   1.260       .  A
C59         C300   1.462       .  S
C63          C67   1.494   1_545  S
In66         O68   2.258       .  S
In66         O69   2.255       .  S
In66         O77   2.274       .  S
In66         O71   2.280       .  S
In66         O73   2.282       .  S
In66         O74   2.264       .  S
In66         O75   2.312       .  S
In66         O78   2.254       .  S
C67          O73   1.258       .  A
C67          O75   1.264       .  A
O68          C76   1.264       .  A
O69          C76   1.257       .  A
C70          O77   1.254       .  A
C70          O71   1.257       .  A
C70         C187   1.476       .  S
C72          O74   1.257       .  A
C72          O78   1.262       .  A
C72         C102   1.465       .  S
C76         C322   1.465       .  S
In79         O81   2.286       .  S
In79         O82   2.215       .  S
In79         O90   2.219       .  S
In79         O84   2.242       .  S
In79         O86   2.220       .  S
In79         O87   2.259       .  S
In79         O88   2.191       .  S
In79         O91   2.230       .  S
C80          O86   1.260       .  A
C80          O88   1.255       .  A
C80         C318   1.430   1_545  S
O81          C89   1.265       .  A
O82          C89   1.258       .  A
C83          O90   1.262       .  A
C83          O84   1.252       .  A
C83         C703   1.482       .  S
C85          O87   1.264       .  A
C85          O91   1.259       .  A
C85         C283   1.464       .  S
In92         O94   2.233       .  S
In92         O95   2.277       .  S
In92        O103   2.276       .  S
In92         O97   2.218       .  S
In92         O99   2.204       .  S
In92        O100   2.251       .  S
In92        O101   2.229       .  S
In92        O104   2.234       .  S
C93          O99   1.260       .  A
C93         O101   1.259       .  A
C93         C309   1.440   1_565  S
O94         C102   1.252       .  A
O95         C102   1.264       .  A
C96         O103   1.261       .  A
C96          O97   1.254       .  A
C96         C689   1.486       .  S
C98         O100   1.265       .  A
C98         O104   1.259       .  A
C98         C296   1.462       .  S
In105       O107   2.246       .  S
In105       O108   2.264       .  S
In105       O116   2.211       .  S
In105       O110   2.258       .  S
In105       O112   2.192       .  S
In105       O113   2.249       .  S
In105       O114   2.200       .  S
In105       O117   2.253       .  S
C106        O112   1.259       .  A
C106        O114   1.259       .  A
C106        C119   1.428       .  S
O107        C115   1.257       .  A
O108        C115   1.263       .  A
C109        O116   1.261       .  A
C109        O110   1.253       .  A
C109        C675   1.468       .  S
C111        O113   1.261       .  A
C111        O117   1.259       .  A
C111        C206   1.465       .  S
C115        C163   1.467       .  S
In118       O120   2.240       .  S
In118       O121   2.245       .  S
In118       O129   2.245       .  S
In118       O123   2.204       .  S
In118       O125   2.193       .  S
In118       O126   2.262       .  S
In118       O127   2.205       .  S
In118       O130   2.236       .  S
C119        O125   1.258       .  A
C119        O127   1.260       .  A
O120        C128   1.255       .  A
O121        C128   1.263       .  A
C122        O129   1.264       .  A
C122        O123   1.253       .  A
C122        C664   1.477       .  S
C124        O126   1.265       .  A
C124        O130   1.256       .  A
C124        C154   1.465       .  S
C128        C189   1.459       .  S
In131       O133   2.256       .  S
In131       O134   2.258       .  S
In131       O142   2.256       .  S
In131       O136   2.227       .  S
In131       O138   2.184       .  S
In131       O139   2.257       .  S
In131       O140   2.234       .  S
In131       O143   2.259       .  S
C132        O138   1.257       .  A
C132        O140   1.261       .  A
C132        C171   1.434       .  S
O133        C141   1.254       .  A
O134        C141   1.259       .  A
C135        O142   1.264       .  A
C135        O136   1.251       .  A
C135        C647   1.492       .  S
C137        O139   1.264       .  A
C137        O143   1.257       .  A
C137        C193   1.469       .  S
C141        C150   1.464       .  S
In144       O146   2.263       .  S
In144       O147   2.252       .  S
In144       O155   2.280       .  S
In144       O149   2.276       .  S
In144       O151   2.346       .  S
In144       O152   2.238       .  S
In144       O153   2.252       .  S
In144       O156   2.262       .  S
C145        O151   1.268       .  A
C145        O153   1.256       .  A
C145        C158   1.498       .  S
O146        C154   1.262       .  A
O147        C154   1.256       .  A
C148        O155   1.259       .  A
C148        O149   1.258       .  A
C148        C225   1.483       .  S
C150        O152   1.258       .  A
C150        O156   1.265       .  A
In157       O159   2.267       .  S
In157       O160   2.250       .  S
In157       O168   2.293       .  S
In157       O162   2.305       .  S
In157       O164   2.347       .  S
In157       O165   2.258       .  S
In157       O166   2.253       .  S
In157       O169   2.263       .  S
C158        O164   1.268       .  A
C158        O166   1.255       .  A
O159        C167   1.265       .  A
O160        C167   1.260       .  A
C161        O168   1.259       .  A
C161        O162   1.260       .  A
C161        C277   1.496       .  S
C163        O165   1.258       .  A
C163        O169   1.260       .  A
C167        C176   1.472       .  S
In170       O172   2.232       .  S
In170       O173   2.267       .  S
In170       O181   2.229       .  S
In170       O175   2.260       .  S
In170       O177   2.185       .  S
In170       O178   2.261       .  S
In170       O179   2.233       .  S
In170       O182   2.264       .  S
C171        O177   1.255       .  A
C171        O179   1.260       .  A
O172        C180   1.255       .  A
O173        C180   1.263       .  A
C174        O181   1.265       .  A
C174        O175   1.254       .  A
C174        C633   1.489       .  S
C176        O178   1.261       .  A
C176        O182   1.259       .  A
C180        C202   1.463       .  S
In183       O185   2.273       .  S
In183       O186   2.248       .  S
In183       O194   2.268       .  S
In183       O188   2.265       .  S
In183       O190   2.332       .  S
In183       O191   2.236       .  S
In183       O192   2.239       .  S
In183       O195   2.257       .  S
C184        O190   1.267       .  A
C184        O192   1.257       .  A
C184        C197   1.490       .  S
O185        C193   1.263       .  A
O186        C193   1.256       .  A
C187        O194   1.261       .  A
C187        O188   1.258       .  A
C189        O191   1.256       .  A
C189        O195   1.264       .  A
In196       O198   2.253       .  S
In196       O199   2.239       .  S
In196       O207   2.286       .  S
In196       O201   2.286       .  S
In196       O203   2.340       .  S
In196       O204   2.253       .  S
In196       O205   2.234       .  S
In196       O208   2.246       .  S
C197        O203   1.269       .  A
C197        O205   1.254       .  A
O198        C206   1.264       .  A
O199        C206   1.260       .  A
C200        O207   1.260       .  A
C200        O201   1.260       .  A
C202        O204   1.259       .  A
C202        O208   1.261       .  A
C209        C591   1.674       .  S
C209        C608   1.696       .  S
C209        C622   1.707       .  S
C209        C636   1.578       .  S
C210        C549   1.586       .  S
C210        C563   1.686       .  S
C210        C577   1.710       .  S
C210        C605   1.668       .  S
C211        C521   1.724       .  S
C211        C535   1.555       .  S
C211        C580   1.752       .  S
C211        C594   1.691       .  S
C212        C496   1.636       .  S
C212        C507   1.715       .  S
C212        C566   1.677       .  S
C212        C706   1.582       .  S
C213        C479   1.697       .  S
C213        C510   1.681       .  S
C213        C524   1.710       .  S
C213        C720   1.592       .  S
C214        C482   1.701       .  S
C214        C493   1.652       .  S
C214        C619   1.714       .  S
C214        C678   1.589       .  S
C215        C437   1.642       .  S
C215        C454   1.624       .  S
C215        C468   1.635       .  S
C215        C650   1.593       .  S
C216        C409   1.667       .  S
C216        C426   1.674       .  S
C216        C440   1.642       .  S
C216        C692   1.577       .  S
C217        C395   1.619       .  S
C217        C412   1.639       .  S
C217        C451   1.615       .  S
C217        C734   1.566       .  S
C218        C370   1.666       .  S
C218        C381   1.655       .  S
C218        C465   1.656       .  S
C218        C661   1.590       .  S
C219        C339   1.567       .  S
C219        C353   1.638       .  S
C219        C384   1.640       .  S
C219        C398   1.620       .  S
C220        C325   1.596       .  S
C220        C356   1.620       .  S
C220        C367   1.644       .  S
C220        C423   1.664       .  S
In221       O223   2.251       .  S
In221       O224   2.263       .  S
In221       O232   2.290       .  S
In221       O226   2.288       .  S
In221       O228   2.287       .  S
In221       O229   2.276       .  S
In221       O230   2.290       .  S
In221       O233   2.249       .  S
C222        O228   1.261       .  A
C222        O230   1.262       .  A
C222        C244   1.490   1_455  S
O223        C231   1.261       .  A
O224        C231   1.258       .  A
C225        O232   1.255       .  A
C225        O226   1.256       .  A
C227        O229   1.259       .  A
C227        O233   1.260       .  A
C227        C266   1.469       .  S
In234       O236   2.291       .  S
In234       O237   2.289       .  S
In234       O245   2.283       .  S
In234       O239   2.289       .  S
In234       O241   2.288       .  S
In234       O242   2.254       .  S
In234       O243   2.229       .  S
In234       O246   2.265       .  S
C235        O241   1.263       .  A
C235        O243   1.258       .  A
C235        C248   1.468       .  S
O236        C244   1.260       .  A
O237        C244   1.259       .  A
C238        O245   1.259       .  A
C238        O239   1.260       .  A
C240        O242   1.262       .  A
C240        O246   1.259       .  A
In247       O249   2.263       .  S
In247       O250   2.250       .  S
In247       O258   2.256       .  S
In247       O252   2.225       .  S
In247       O254   2.287       .  S
In247       O255   2.201       .  S
In247       O256   2.223       .  S
In247       O259   2.202       .  S
C248        O254   1.265       .  A
C248        O256   1.257       .  A
O249        C257   1.260       .  A
O250        C257   1.257       .  A
C251        O258   1.251       .  A
C251        O252   1.264       .  A
C251        C538   1.478       .  S
C253        O255   1.261       .  A
C253        O259   1.260       .  A
In260       O262   2.221       .  S
In260       O263   2.212       .  S
In260       O271   2.241       .  S
In260       O265   2.279       .  S
In260       O267   2.256       .  S
In260       O268   2.235       .  S
In260       O269   2.273       .  S
In260       O272   2.281       .  S
C261        O267   1.259       .  A
C261        O269   1.263       .  A
O262        C270   1.255       .  A
O263        C270   1.258       .  A
C264        O271   1.250       .  A
C264        O265   1.264       .  A
C264        C342   1.491       .  S
C266        O268   1.255       .  A
C266        O272   1.265       .  A
In273       O275   2.245       .  S
In273       O276   2.261       .  S
In273       O284   2.302       .  S
In273       O278   2.312       .  S
In273       O280   2.293       .  S
In273       O281   2.262       .  S
In273       O282   2.290       .  S
In273       O285   2.268       .  S
C274        O280   1.263       .  A
C274        O282   1.260       .  A
C274        C287   1.493   1_545  S
O275        C283   1.260       .  A
O276        C283   1.261       .  A
C277        O284   1.256       .  A
C277        O278   1.257       .  A
C279        O281   1.259       .  A
C279        O285   1.261       .  A
C279        C305   1.471       .  S
In286       O288   2.249       .  S
In286       O289   2.256       .  S
In286       O297   2.270       .  S
In286       O291   2.277       .  S
In286       O293   2.290       .  S
In286       O294   2.243       .  S
In286       O295   2.298       .  S
In286       O298   2.288       .  S
C287        O293   1.258       .  A
C287        O295   1.262       .  A
O288        C296   1.261       .  A
O289        C296   1.257       .  A
C290        O297   1.258       .  A
C290        O291   1.260       .  A
C292        O294   1.259       .  A
C292        O298   1.262       .  A
C292        C313   1.473       .  S
In299       O301   2.189       .  S
In299       O302   2.231       .  S
In299       O310   2.217       .  S
In299       O304   2.255       .  S
In299       O306   2.251       .  S
In299       O307   2.268       .  S
In299       O308   2.259       .  S
In299       O311   2.269       .  S
C300        O306   1.255       .  A
C300        O308   1.259       .  A
O301        C309   1.258       .  A
O302        C309   1.264       .  A
C303        O310   1.248       .  A
C303        O304   1.263       .  A
C303        C552   1.470       .  S
C305        O307   1.255       .  A
C305        O311   1.258       .  A
In312       O314   2.263       .  S
In312       O315   2.236       .  S
In312       O323   2.233       .  S
In312       O317   2.251       .  S
In312       O319   2.290       .  S
In312       O320   2.187       .  S
In312       O321   2.232       .  S
In312       O324   2.219       .  S
C313        O319   1.266       .  A
C313        O321   1.257       .  A
O314        C322   1.263       .  A
O315        C322   1.254       .  A
C316        O323   1.253       .  A
C316        O317   1.267       .  A
C316        C328   1.482       .  S
C318        O320   1.258       .  A
C318        O324   1.260       .  A
C325        C326   1.443       .  A
C325        C330   1.427       .  A
C326        C327   1.411       .  A
C326        C331   1.445       .  S
C327        C328   1.397       .  A
C327        C334   1.459       .  S
C328        C329   1.407       .  A
C329        C330   1.418       .  A
C329        C332   1.451       .  S
C330        C333   1.440       .  S
C331        N338   1.158       .  T
C332        N337   1.157       .  T
C333        N335   1.158       .  T
C334        N336   1.157       .  T
C339        C340   1.413       .  A
C339        C344   1.422       .  A
C340        C341   1.412       .  A
C340        C345   1.444       .  S
C341        C342   1.417       .  A
C341        C348   1.449       .  S
C342        C343   1.411       .  A
C343        C344   1.414       .  A
C343        C346   1.451       .  S
C344        C347   1.449       .  S
C345        N352   1.157       .  T
C346        N351   1.157       .  T
C347        N349   1.157       .  T
C348        N350   1.157       .  T
C353        C354   1.431       .  A
C353        C358   1.397       .  A
C354        C355   1.437       .  A
C354        C359   1.440       .  S
C355        C356   1.426       .  A
C355        C362   1.452       .  S
C356        C357   1.448       .  A
C357        C358   1.425       .  A
C357        C360   1.447       .  S
C358        C361   1.451       .  S
C359        N366   1.157       .  T
C360        N365   1.158       .  T
C361        N363   1.157       .  T
C362        N364   1.159       .  T
C367        C368   1.414       .  A
C367        C372   1.411       .  A
C368        C369   1.440       .  A
C368        C373   1.451       .  S
C369        C370   1.451       .  A
C369        C376   1.449       .  S
C370        C371   1.447       .  A
C371        C372   1.451       .  A
C371        C374   1.438       .  S
C372        C375   1.444       .  S
C373        N380   1.157       .  T
C374        N379   1.158       .  T
C375        N377   1.156       .  T
C376        N378   1.158       .  T
C381        C382   1.429       .  A
C381        C386   1.417       .  A
C382        C383   1.436       .  A
C382        C387   1.450       .  S
C383        C384   1.443       .  A
C383        C390   1.447       .  S
C384        C385   1.450       .  A
C385        C386   1.430       .  A
C385        C388   1.450       .  S
C386        C389   1.452       .  S
C387        N394   1.159       .  T
C388        N393   1.158       .  T
C389        N391   1.158       .  T
C390        N392   1.157       .  T
C395        C396   1.447       .  A
C395        C400   1.401       .  A
C396        C397   1.469   1_556  A
C396        C401   1.443       .  S
C397        C398   1.449       .  A
C397        C404   1.445       .  S
C398        C399   1.399       .  A
C399        C400   1.403   1_554  A
C399        C402   1.414       .  S
C400        C403   1.446       .  S
C401        N408   1.157       .  T
C402        N407   1.149       .  T
C403        N405   1.158       .  T
C404        N406   1.157       .  T
C409        C410   1.423       .  A
C409        C414   1.429       .  A
C410        C411   1.449       .  A
C410        C415   1.447       .  S
C411        C412   1.434       .  A
C411        C418   1.446       .  S
C412        C413   1.425       .  A
C413        C414   1.434       .  A
C413        C416   1.440       .  S
C414        C417   1.446       .  S
C415        N422   1.157       .  T
C416        N421   1.156       .  T
C417        N419   1.157       .  T
C418        N420   1.158       .  T
C423        C424   1.395       .  A
C423        C428   1.467       .  A
C424        C425   1.400   1_554  A
C424        C429   1.397       .  S
C425        C426   1.399       .  A
C425        C432   1.429       .  S
C426        C427   1.465       .  A
C427        C428   1.501   1_556  A
C427        C430   1.441       .  S
C428        C431   1.441       .  S
C429        N436   1.143       .  T
C430        N435   1.157       .  T
C431        N433   1.158       .  T
C432        N434   1.156       .  T
C437        C438   1.441       .  A
C437        C442   1.443       .  A
C438        C439   1.453       .  A
C438        C443   1.436       .  S
C439        C440   1.411       .  A
C439        C446   1.444       .  S
C440        C441   1.417       .  A
C441        C442   1.422       .  A
C441        C444   1.447       .  S
C442        C445   1.447       .  S
C443        N450   1.156       .  T
C444        N449   1.157       .  T
C445        N447   1.157       .  T
C446        N448   1.155       .  T
C451        C452   1.432       .  A
C451        C456   1.383       .  A
C452        C453   1.454       .  A
C452        C457   1.442       .  S
C453        C454   1.453       .  A
C453        C460   1.438       .  S
C454        C455   1.417       .  A
C455        C456   1.371       .  A
C455        C458   1.423       .  S
C456        C459   1.368       .  S
C457        N464   1.158       .  T
C458        N463   1.143   1_556  T
C459        N461   1.121       .  T
C460        N462   1.157       .  T
C465        C466   1.414       .  A
C465        C470   1.426       .  A
C466        C467   1.426   1_554  A
C466        C471   1.447       .  S
C467        C468   1.450       .  A
C467        C474   1.452       .  S
C468        C469   1.425       .  A
C469        C470   1.460   1_556  A
C469        C472   1.446       .  S
C470        C473   1.448       .  S
C471        N478   1.158       .  T
C472        N477   1.157       .  T
C473        N475   1.157       .  T
C474        N476   1.158       .  T
C479        C480   1.438       .  A
C479        C484   1.439       .  A
C480        C481   1.479       .  A
C480        C485   1.459       .  S
C481        C482   1.444       .  A
C481        C488   1.463       .  S
C482        C483   1.437       .  A
C483        C484   1.472       .  A
C483        C486   1.448       .  S
C484        C487   1.447       .  S
C485        N492   1.158       .  T
C486        N491   1.157       .  T
C487        N489   1.157       .  T
C488        N490   1.158       .  T
C493        C494   1.379       .  A
C493        C498   1.453       .  A
C494        C495   1.379       .  A
C494        C499   1.464       .  S
C495        C496   1.377       .  A
C495        C502   1.386       .  S
C496        C497   1.486       .  A
C497        C498   1.478       .  A
C497        C500   1.449       .  S
C498        C501   1.451       .  S
C499        N506   1.157       .  T
C500        N505   1.157       .  T
C501        N503   1.157       .  T
C502        N504   1.132       .  T
C507        C508   1.461       .  A
C507        C512   1.440       .  A
C508        C509   1.464       .  A
C508        C513   1.445       .  S
C509        C510   1.402       .  A
C509        C516   1.468       .  S
C510        C511   1.456       .  A
C511        C512   1.459       .  A
C511        C514   1.463       .  S
C512        C515   1.455       .  S
C513        N520   1.157   1_554  T
C514        N519   1.158       .  T
C515        N517   1.157       .  T
C516        N518   1.158       .  T
C521        C522   1.535       .  A
C521        C526   1.344       .  A
C522        C523   1.577   1_556  A
C522        C527   1.441       .  S
C523        C524   1.517       .  A
C523        C530   1.442       .  S
C524        C525   1.368       .  A
C525        C526   1.448   1_554  A
C525        C528   1.453       .  S
C526        C529   1.458       .  S
C527        N534   1.157       .  T
C528        N533   1.155   1_554  T
C529        N531   1.159       .  T
C530        N532   1.157       .  T
C535        C536   1.415       .  A
C535        C540   1.427       .  A
C536        C537   1.384       .  A
C536        C541   1.441       .  S
C537        C538   1.398       .  A
C537        C544   1.454       .  S
C538        C539   1.420       .  A
C539        C540   1.428       .  A
C539        C542   1.448       .  S
C540        C543   1.449       .  S
C541        N548   1.158       .  T
C542        N547   1.157       .  T
C543        N545   1.158       .  T
C544        N546   1.157       .  T
C549        C550   1.422       .  A
C549        C554   1.432       .  A
C550        C551   1.418       .  A
C550        C555   1.446       .  S
C551        C552   1.412       .  A
C551        C558   1.451       .  S
C552        C553   1.395       .  A
C553        C554   1.400       .  A
C553        C556   1.458       .  S
C554        C557   1.447       .  S
C555        N562   1.158       .  T
C556        N561   1.157       .  T
C557        N559   1.158       .  T
C558        N560   1.157       .  T
C563        C564   1.464       .  A
C563        C568   1.421       .  A
C564        C565   1.471   1_556  A
C564        C569   1.447       .  S
C565        C566   1.434       .  A
C565        C572   1.446       .  S
C566        C567   1.446       .  A
C567        C568   1.460   1_554  A
C567        C570   1.445       .  S
C568        C571   1.441       .  S
C569        N576   1.158       .  T
C570        N575   1.157       .  T
C571        N573   1.157       .  T
C572        N574   1.157       .  T
C577        C578   1.472       .  A
C577        C582   1.372       .  A
C578        C579   1.513       .  A
C578        C583   1.438       .  S
C579        C580   1.471       .  A
C579        C586   1.443       .  S
C580        C581   1.415       .  A
C581        C582   1.407       .  A
C581        C584   1.377       .  S
C582        C585   1.376       .  S
C583        N590   1.156       .  T
C584        N589   1.124       .  T
C585        N587   1.128   1_556  T
C586        N588   1.157       .  T
C591        C592   1.554       .  A
C591        C596   1.330       .  A
C592        C593   1.581       .  A
C592        C597   1.440       .  S
C593        C594   1.542       .  A
C593        C600   1.440       .  S
C594        C595   1.329       .  A
C595        C596   1.439       .  A
C595        C598   1.492       .  S
C596        C599   1.474       .  S
C597        N604   1.157       .  T
C598        N603   1.155       .  T
C599        N601   1.159       .  T
C600        N602   1.157       .  T
C605        C606   1.373       .  A
C605        C610   1.509       .  A
C606        C607   1.418       .  A
C606        C611   1.444       .  S
C607        C608   1.365       .  A
C607        C614   1.409       .  S
C608        C609   1.498       .  A
C609        C610   1.534       .  A
C609        C612   1.444       .  S
C610        C613   1.438       .  S
C611        N618   1.159       .  T
C612        N617   1.157       .  T
C613        N615   1.157       .  T
C614        N616   1.139       .  T
C619        C620   1.377       .  A
C619        C624   1.497       .  A
C620        C621   1.417   1_554  A
C620        C625   1.396       .  S
C621        C622   1.394       .  A
C621        C628   1.446       .  S
C622        C623   1.503       .  A
C623        C624   1.540   1_556  A
C623        C626   1.438       .  S
C624        C627   1.445       .  S
C625        N632   1.140       .  T
C626        N631   1.158       .  T
C627        N629   1.158       .  T
C628        N630   1.157       .  T
C633        C634   1.387       .  A
C633        C638   1.408       .  A
C634        C635   1.388       .  A
C634        C639   1.456       .  S
C635        C636   1.440       .  A
C635        C642   1.445       .  S
C636        C637   1.442       .  A
C637        C638   1.429       .  A
C637        C640   1.449       .  S
C638        C641   1.450       .  S
C639        N646   1.157       .  T
C640        N645   1.158       .  T
C641        N643   1.157       .  T
C642        N644   1.155       .  T
C647        C648   1.406       .  A
C647        C652   1.418       .  A
C648        C649   1.410       .  A
C648        C653   1.455       .  S
C649        C650   1.437       .  A
C649        C656   1.447       .  S
C650        C651   1.420       .  A
C651        C652   1.418       .  A
C651        C654   1.443       .  S
C652        C655   1.452       .  S
C653        N660   1.157       .  T
C654        N659   1.158       .  T
C655        N657   1.157       .  T
C656        N658   1.157       .  T
C661        C662   1.442       .  A
C661        C666   1.443       .  A
C662        C663   1.413       .  A
C662        C667   1.443       .  S
C663        C664   1.395       .  A
C663        C670   1.457       .  S
C664        C665   1.397       .  A
C665        C666   1.415       .  A
C665        C668   1.459       .  S
C666        C669   1.441       .  S
C667        N674   1.157       .  T
C668        N673   1.158       .  T
C669        N671   1.157       .  T
C670        N672   1.157       .  T
C675        C676   1.406       .  A
C675        C680   1.387       .  A
C676        C677   1.421       .  A
C676        C681   1.448       .  S
C677        C678   1.426       .  A
C677        C684   1.447       .  S
C678        C679   1.456       .  A
C679        C680   1.399       .  A
C679        C682   1.451       .  S
C680        C683   1.467       .  S
C681        N688   1.157       .  T
C682        N687   1.155       .  T
C683        N685   1.157       .  T
C684        N686   1.158       .  T
C689        C690   1.410       .  A
C689        C694   1.412       .  A
C690        C691   1.411       .  A
C690        C695   1.455       .  S
C691        C692   1.425       .  A
C691        C698   1.441       .  S
C692        C693   1.410       .  A
C693        C694   1.412       .  A
C693        C696   1.441       .  S
C694        C697   1.449       .  S
C695        N702   1.157       .  T
C696        N701   1.157       .  T
C697        N699   1.157       .  T
C698        N700   1.157       .  T
C703        C704   1.395       .  A
C703        C708   1.419       .  A
C704        C705   1.393       .  A
C704        C709   1.460       .  S
C705        C706   1.454       .  A
C705        C712   1.449       .  S
C706        C707   1.426       .  A
C707        C708   1.425       .  A
C707        C710   1.446       .  S
C708        C711   1.452       .  S
C709        N716   1.157       .  T
C710        N715   1.158       .  T
C711        N713   1.158       .  T
C712        N714   1.152       .  T
C717        C718   1.407       .  A
C717        C722   1.386       .  A
C718        C719   1.432       .  A
C718        C723   1.449       .  S
C719        C720   1.445       .  A
C719        C726   1.444       .  S
C720        C721   1.449       .  A
C721        C722   1.386       .  A
C721        C724   1.457       .  S
C722        C725   1.458       .  S
C723        N730   1.157       .  T
C724        N729   1.158       .  T
C725        N727   1.157       .  T
C726        N728   1.158       .  T
C731        C732   1.413       .  A
C731        C736   1.420       .  A
C732        C733   1.407       .  A
C732        C737   1.453       .  S
C733        C734   1.410       .  A
C733        C740   1.445       .  S
C734        C735   1.412       .  A
C735        C736   1.414       .  A
C735        C738   1.447       .  S
C736        C739   1.450       .  S
C737        N744   1.157       .  T
C738        N743   1.157       .  T
C739        N741   1.157       .  T
C740        N742   1.158       .  T
