geometry optimzed in LAMMPS
_audit_creation_date              2020-11-30 
_audit_creation_method            'lammps2cif' 
_symmetry_space_group_name_H-M    'P1' 
_symmetry_Int_Tables_number       1 
_symmetry_cell_setting            triclinic 
loop_ 
_symmetry_equiv_pos_as_xyz 
  x,y,z 
_cell_length_a                    39.39588742 
_cell_length_b                    39.067225900396615 
_cell_length_c                    37.03338073418518 
_cell_angle_alpha                 90.18626770904945 
_cell_angle_beta                  90.27110719223103 
_cell_angle_gamma                 120.59541936376803 
loop_ 
_atom_site_label 
_atom_site_type_symbol 
_atom_site_fract_x 
_atom_site_fract_y 
_atom_site_fract_z 
_atom_site_charge 
O1          O  0.14209642  0.17037880  0.35606440    -0.87800
C2          C  0.11663508  0.25805658  0.36616401     0.88200
Mg3        Mg  0.14664509  0.14604052  0.30523336     1.58100
O4          O  0.04603644  0.15992772  0.38963874    -0.87500
O5          O  0.11941281  0.15172786  0.41010596    -0.74900
C6          C  0.98110625  0.09855243  0.21769670     0.93300
O7          O  0.15951408  0.23766358  0.29983860    -0.74700
O8          O  0.01585195  0.10688006  0.20917466    -0.82200
Mg9        Mg  0.17495411  0.23451945  0.35980986     1.58000
C10         C  0.43634330  0.12986366  0.34683836     0.93200
O11         O  0.19681208  0.23875852  0.41771512    -0.80400
H12         H  0.02573232  0.11168850  0.42069835    -0.05800
C13         C  0.03262550  0.18863819  0.28520821     0.88100
O14         O  0.08648047  0.08929059  0.31338069    -0.74900
O15         O  0.12367580  0.23283979  0.37820105    -0.87700
O16         O  0.46053855  0.14081832  0.37288470    -0.80500
C17         C  0.03923493  0.23020690  0.44405061     0.93300
C18         C  0.18790007  0.23840268  0.45068306     0.93200
Mg19       Mg  0.99197718  0.10405137  0.30849923     1.58000
O20         O  0.47153996  0.10199303  0.24972840    -0.80400
O21         O  0.00551711  0.09967541  0.36889781    -0.74700
O22         O  0.07145034  0.23029595  0.44765442    -0.80500
O23         O  0.22812043  0.23257813  0.34616082    -0.82200
O24         O  0.09768400  0.10427575  0.22162364    -0.80600
C25         C  0.02587631  0.12355718  0.39432984     0.87600
O26         O  0.04358500  0.10368338  0.29133655    -0.87700
O27         O  0.02690470  0.16809813  0.31218015    -0.87800
O28         O  0.04890526  0.18430409  0.25758028    -0.74900
Mg29       Mg  0.09671119  0.19349498  0.42422381     1.58000
O30         O  0.01690018  0.21592777  0.41659490    -0.82200
H31         H  0.14614129  0.12760947  0.38170238    -0.06000
O32         O  0.12196499  0.17686244  0.27862328    -0.87500
H33         H  0.13934861  0.22505301  0.24808261    -0.05800
H34         H  0.02763691  0.04971899  0.31041769    -0.06000
C35         C  0.14023317  0.21338107  0.27427742     0.87600
C36         C  0.13669806  0.14918830  0.38246417     0.88200
C37         C  0.05139186  0.07952673  0.30479874     0.88200
H38         H  0.02388577  0.21076744  0.28521695    -0.05900
O39         O  0.08206257  0.24899343  0.35666437    -0.75000
Mg40       Mg  0.07151024  0.14180283  0.24454951     1.58000
H41         H  0.14074507  0.28809334  0.36214242    -0.06000
C42         C  0.23211572  0.21323377  0.32096735     0.93200
O43         O  0.15273727  0.12125850  0.25275875    -0.82200
C44         C  0.13055628  0.10550326  0.22543627     0.93300
O45         O  0.15266450  0.22743277  0.46014906    -0.82200
Mg46       Mg  0.02223559  0.19215860  0.36354409     1.58200
O47         O  0.20731488  0.19858997  0.29538588    -0.80500
O48         O  0.43896482  0.11027351  0.32086139    -0.82200
C49         C  0.14616965  0.09237370  0.19576140     0.02800
C50         C  0.14122665  0.05417331  0.19410403     0.02800
C51         C  0.16265974  0.04617366  0.16825205    -0.17700
C52         C  0.18881596  0.07551735  0.14394105     0.02800
C53         C  0.19201026  0.11339861  0.14484105     0.02800
C54         C  0.17097491  0.12115920  0.17098215    -0.17700
H55         H  0.17399555  0.15035880  0.17206671     0.04800
H56         H  0.15950038  0.01693429  0.16748169     0.04800
C57         C  0.41533526  0.05205058  0.18791797     0.02800
C58         C  0.45033381  0.08984628  0.18913697     0.02800
C59         C  0.45383183  0.12012950  0.16601751    -0.17700
C60         C  0.42343838  0.11385377  0.14168907     0.02800
C61         C  0.38857666  0.07593118  0.14023146     0.02800
C62         C  0.38542744  0.04589911  0.16328136    -0.17700
H63         H  0.35848027  0.01706550  0.16258254     0.04800
H64         H  0.48064874  0.14900879  0.16694820     0.04800
O65         O  0.03522923  0.35984689  0.31405046    -0.87800
C66         C  0.03952672  0.46518967  0.30408113     0.88200
Mg67       Mg  0.03387581  0.33163927  0.36512581     1.58100
O68         O  0.11828304  0.45119189  0.27904743    -0.87500
O69         O  0.05125810  0.36445883  0.25784236    -0.74900
C70         C  0.19309112  0.46210822  0.44840838     0.93300
O71         O  0.00815607  0.40031535  0.37080462    -0.74700
O72         O  0.16007746  0.43251613  0.45792911    -0.82200
Mg73       Mg  0.99261652  0.37846324  0.31112426     1.58000
C74         C  0.22213392  0.04155361  0.31959830     0.93200
O75         O  0.47057154  0.35940606  0.25248104    -0.80400
H76         H  0.14313243  0.42862214  0.24731234    -0.05800
C77         C  0.13047974  0.49237456  0.38516869     0.88100
O78         O  0.09578952  0.34181578  0.35584935    -0.74900
O79         O  0.03693332  0.43479411  0.29114167    -0.87700
O80         O  0.19840248  0.02340526  0.29416448    -0.80500
C81         C  0.12235420  0.02574408  0.22379465     0.93300
C82         C  0.97720920  0.37239061  0.22082021     0.93200
Mg83       Mg  0.17749607  0.45904208  0.35900861     1.58000
O84         O  0.19932740  0.47627203  0.41670559    -0.80400
O85         O  0.16433341  0.44002693  0.29878459    -0.74700
O86         O  0.09196724  0.49086276  0.21794306    -0.80500
O87         O  0.44862365  0.31509509  0.32551551    -0.82200
O88         O  0.07848161  0.34435487  0.45147779    -0.80600
C89         C  0.14181851  0.43961524  0.27378434     0.87600
O90         O  0.13240523  0.40174107  0.37760152    -0.87700
O91         O  0.13451638  0.47780290  0.35723377    -0.87800
O92         O  0.11997548  0.47228284  0.41389756    -0.74900
Mg93       Mg  0.06769335  0.42846714  0.24466099     1.58000
O94         O  0.14055852  0.03538420  0.25367437    -0.82200
H95         H  0.03390164  0.31456644  0.28738565    -0.06000
O96         O  0.05240931  0.38694926  0.39196066    -0.87500
H97         H  0.03041930  0.41377667  0.42190549    -0.05800
H98         H  0.15550216  0.36969964  0.35944998    -0.06000
C99         C  0.03051270  0.40079792  0.39610281     0.87600
C100        C  0.03988441  0.34481372  0.28674329     0.88200
C101        C  0.12923716  0.37108979  0.36458558     0.88200
H102        H  0.13650732  0.52264656  0.38529500    -0.05900
O103        O  0.07248184  0.49421872  0.31412726    -0.75000
Mg104      Mg  0.10300795  0.40763814  0.42563699     1.58000
H105        H  0.01301789  0.46635330  0.30838929    -0.06000
C106        C  0.44922208  0.29785387  0.35416618     0.93200
O107        O  0.02919443  0.30081158  0.41652546    -0.82200
C108        C  0.04785655  0.31009750  0.44613566     0.93300
O109        O  0.01070637  0.40158023  0.21158387    -0.82200
Mg110      Mg  0.13652922  0.00587586  0.30546852     1.58200
O111        O  0.47369462  0.31727920  0.37846719    -0.80500
O112        O  0.22392761  0.02215166  0.34601258    -0.82200
O113        O  0.31619985  0.35428457  0.34186009    -0.87800
C114        C  0.35660678  0.43934495  0.41845649     0.88200
Mg115      Mg  0.35090482  0.35368400  0.29640817     1.58100
O116        O  0.27955925  0.42409982  0.35889312    -0.87500
O117        O  0.25731037  0.33548240  0.36153068    -0.74900
C118        C  0.40409604  0.02050305  0.21556999     0.93300
O119        O  0.40427774  0.41265325  0.36394518    -0.74700
O120        O  0.41777727  0.49873841  0.21536853    -0.82200
Mg121      Mg  0.34716718  0.36349046  0.39223435     1.58000
C122        C  0.30377111  0.02810821  0.30646401     0.93200
O123        O  0.29528389  0.31630412  0.42415823    -0.80400
H124        H  0.22636246  0.38904270  0.33665084    -0.05800
C125        C  0.39226125  0.50778038  0.32128744     0.88100
O126        O  0.31268636  0.36308414  0.25579862    -0.74900
O127        O  0.33107775  0.40690131  0.40598236    -0.87700
O128        O  0.28829988  0.00330911  0.33168893    -0.80500
C129        C  0.27260472  0.46666259  0.44295035     0.93300
C130        C  0.26926661  0.31276191  0.44648830     0.93200
Mg131      Mg  0.32507733  0.46975381  0.27036615     1.58000
O132        O  0.37641393  0.01539148  0.23639528    -0.80400
O133        O  0.26835701  0.42360821  0.30034356    -0.74700
O134        O  0.26705129  0.43121798  0.44533327    -0.80500
O135        O  0.35668287  0.31104549  0.37804770    -0.82200
O136        O  0.40514744  0.40622195  0.22003326    -0.80600
C137        C  0.25686551  0.41156654  0.33244709     0.87600
O138        O  0.34178810  0.42765147  0.25863708    -0.87700
O139        O  0.35655998  0.48350293  0.32120291    -0.87800
O140        O  0.41541178  0.50293301  0.30108803    -0.74900
Mg141      Mg  0.26767948  0.38413405  0.40315613     1.58000
O142        O  0.28981445  0.48864713  0.41596135    -0.82200
H143        H  0.26842490  0.30574685  0.32258037    -0.06000
O144        O  0.39285061  0.41489515  0.30577902    -0.87500
H145        H  0.44543202  0.45108062  0.32874871    -0.05800
H146        H  0.29771075  0.39551368  0.22375646    -0.06000
C147        C  0.41537766  0.42721020  0.33238605     0.87600
C148        C  0.28033543  0.33074903  0.34101107     0.88200
C149        C  0.31701913  0.39572269  0.24471110     0.88200
H150        H  0.40544304  0.03273332  0.33844633    -0.05900
O151        O  0.36042442  0.47170351  0.40700832    -0.75000
Mg152      Mg  0.40551537  0.45331248  0.26099462     1.58000
H153        H  0.37697506  0.44025462  0.43864153    -0.06000
C154        C  0.37146220  0.31219646  0.34757949     0.93200
O155        O  0.38522401  0.35005889  0.25056162    -0.82200
C156        C  0.40057404  0.37138571  0.22300492     0.93300
O157        O  0.25678574  0.33737616  0.44760798    -0.82200
Mg158      Mg  0.32342603  0.48518208  0.36787693     1.58200
O159        O  0.38986742  0.34493440  0.33214265    -0.80500
O160        O  0.31520344  0.01946607  0.27805500    -0.82200
C161        C  0.41085754  0.35301847  0.19334449     0.02800
C162        C  0.44686985  0.35301876  0.19276020     0.02800
C163        C  0.45284302  0.33135104  0.16599601    -0.17700
C164        C  0.42386018  0.30935660  0.13991331     0.02800
C165        C  0.38761245  0.30843803  0.14083077     0.02800
C166        C  0.38148449  0.33024796  0.16758655    -0.17700
H167        H  0.35387126  0.33008579  0.16796967     0.04800
H168        H  0.48076985  0.33213947  0.16508825     0.04800
O169        O  0.18041647  0.47750655  0.99064446    -0.87800
C170        C  0.26647984  0.01831290  0.91612925     0.88200
Mg171      Mg  0.18202146  0.51026057  0.03849768     1.58100
O172        O  0.25093238  0.44046696  0.97294578    -0.87500
O173        O  0.16299692  0.41802787  0.97132419    -0.74900
C174        C  0.35585688  0.06372685  0.11350337     0.93300
O175        O  0.24002833  0.06842027  0.97081048    -0.74700
O176        O  0.33288870  0.07808041  0.11418313    -0.82200
Mg177      Mg  0.19230548  0.50943700  0.94101266     1.58000
C178        C  0.35186436  0.45295911  0.01564251     0.93200
O179        O  0.14473245  0.45703558  0.90737449    -0.80400
H180        H  0.21674527  0.38663424  0.99437990    -0.05800
C181        C  0.33507402  0.05087478  0.00912881     0.88100
O182        O  0.19783514  0.47258350  0.07411181    -0.74900
O183        O  0.23419517  0.49230370  0.92803668    -0.87700
O184        O  0.32462081  0.44100663  0.99259850    -0.80500
C185        C  0.28881067  0.43304619  0.88722402     0.93300
C186        C  0.14000982  0.42920762  0.88605398     0.93200
Mg187      Mg  0.30081459  0.98295097  0.05978168     1.58000
O188        O  0.34913101  0.03471691  0.09287556    -0.80400
O189        O  0.25470461  0.42801809  0.03036849    -0.74700
O190        O  0.25412502  0.42824196  0.88598135    -0.80500
O191        O  0.14587201  0.02660987  0.95231570    -0.82200
O192        O  0.24005889  0.06835759  0.11486527    -0.80600
C193        C  0.23990970  0.41713380  0.99874445     0.87600
O194        O  0.25981203  0.00184743  0.07331624    -0.87700
O195        O  0.31209790  0.01463357  0.01033509    -0.87800
O196        O  0.32995848  0.07462883  0.02862215    -0.74900
Mg197      Mg  0.21029188  0.42821133  0.92955474     1.58000
O198        O  0.31164199  0.44911335  0.91395963    -0.82200
H199        H  0.13279740  0.42904975  0.00940932    -0.06000
O200        O  0.24202977  0.05510841  0.02825791    -0.87500
H201        H  0.27576824  0.10959156  0.00799899    -0.05800
H202        H  0.22989212  0.45557212  0.10407860    -0.06000
C203        C  0.25333378  0.07896208  0.00289096     0.87600
C204        C  0.15757252  0.44124126  0.99126509     0.88200
C205        C  0.23026995  0.47670262  0.08506343     0.88200
H206        H  0.35972775  0.06260312  0.99083385    -0.05900
O207        O  0.29822836  0.02036094  0.92656892    -0.75000
Mg208      Mg  0.28389697  0.06625536  0.07119736     1.58000
H209        H  0.26790317  0.03979874  0.89694201    -0.06000
C210        C  0.13926252  0.04044683  0.98061609     0.93200
O211        O  0.18153337  0.04530496  0.08762798    -0.82200
C212        C  0.20492059  0.06285946  0.11386300     0.93300
O213        O  0.16382175  0.41609994  0.88566719    -0.82200
Mg214      Mg  0.30937752  0.98001375  0.96349500     1.58200
O215        O  0.16146017  0.04977327  0.00821467    -0.80500
O216        O  0.35092690  0.47062124  0.04411940    -0.82200
O217        O  0.29991365  0.31632458  0.99008007    -0.87800
C218        C  0.24904278  0.22813201  0.91844119     0.88200
Mg219      Mg  0.33290468  0.31368872  0.03584488     1.58100
O220        O  0.18985050  0.24674912  0.97692237    -0.87500
O221        O  0.25878987  0.33485900  0.97288902    -0.74900
C222        C  0.21089299  0.14403322  0.11656269     0.93300
O223        O  0.32575423  0.25525396  0.96859401    -0.74700
O224        O  0.24831868  0.16691218  0.11541991    -0.82200
Mg225      Mg  0.31844034  0.30442167  0.94005495     1.58000
C226        C  0.09938923  0.14730868  0.02606060     0.93200
O227        O  0.31414332  0.35216042  0.90653978    -0.80400
H228        H  0.17332709  0.28313055  0.99820583    -0.05800
C229        C  0.21107297  0.15866120  0.01270421     0.88100
O230        O  0.28338937  0.30358487  0.07448807    -0.74900
O231        O  0.25760489  0.26185874  0.92856044    -0.87700
O232        O  0.11302542  0.17091604  0.99972905    -0.80500
C233        C  0.14108979  0.20504631  0.89197118     0.93300
C234        C  0.29012322  0.35611700  0.88613944     0.93200
Mg235      Mg  0.18421822  0.19792947  0.06401941     1.58000
O236        O  0.18762532  0.14991845  0.09701434    -0.80400
O237        O  0.17689219  0.24641357  0.03481492    -0.74700
O238        O  0.17201976  0.23973283  0.88972670    -0.80500
O239        O  0.38220933  0.35362931  0.95357900    -0.82200
O240        O  0.32828444  0.25768603  0.11248617    -0.80600
C241        C  0.17964844  0.25961025  0.00281502     0.87600
O242        O  0.24486423  0.23878150  0.07448807    -0.87700
O243        O  0.20023752  0.18320006  0.01412422    -0.87800
O244        O  0.24080972  0.16376877  0.03059298    -0.74900
Mg245      Mg  0.21847154  0.28603287  0.93211554     1.58000
O246        O  0.13371666  0.18357380  0.91963624    -0.82200
H247        H  0.30269281  0.36545164  0.00959291    -0.06000
O248        O  0.30991385  0.25203294  0.02596753    -0.87500
H249        H  0.32751493  0.21667958  0.00427315    -0.05800
H250        H  0.23537922  0.27435972  0.10653879    -0.06000
C251        C  0.32123442  0.24028840  0.00007313     0.87600
C252        C  0.28807799  0.34006270  0.99168206     0.88200
C253        C  0.25393632  0.27201744  0.08645448     0.88200
H254        H  0.19528173  0.13269514  0.99557606    -0.05900
O255        O  0.21939717  0.19693768  0.93080900    -0.75000
Mg256      Mg  0.28208534  0.21258071  0.07054010     1.58000
H257        H  0.26812718  0.22505873  0.89948849    -0.06000
C258        C  0.40084708  0.35345171  0.98159796     0.93200
O259        O  0.36760022  0.31397138  0.08316246    -0.82200
C260        C  0.35951999  0.29198212  0.11054331     0.93300
O261        O  0.25283412  0.33196916  0.88725285    -0.82200
Mg262      Mg  0.16796228  0.18505907  0.96793652     1.58200
O263        O  0.38514418  0.32416714  0.00250259    -0.80500
O264        O  0.12070221  0.15138786  0.05336268    -0.82200
O265        O  0.49879580  0.30657237  0.97877911    -0.87800
C266        C  0.08553456  0.28099765  0.97076613     0.88200
Mg267      Mg  0.47528633  0.31136394  0.02975915     1.58100
O268        O  0.49158674  0.20824043  0.94310069    -0.87500
O269        O  0.48118578  0.28094691  0.92481135    -0.74900
C270        C  0.43209063  0.14487712  0.11452513     0.93300
O271        O  0.06604300  0.32546999  0.03547834    -0.74700
O272        O  0.44130287  0.18000884  0.12418750    -0.82200
Mg273      Mg  0.06060341  0.33955997  0.97566940     1.58000
C274        C  0.45475556  0.09610404  0.98513729     0.93200
O275        O  0.06200137  0.35974845  0.91794915    -0.80400
H276        H  0.44361002  0.18926767  0.91198384    -0.05800
C277        C  0.01881505  0.19540639  0.04908752     0.88100
O278        O  0.41969592  0.25046283  0.02109306    -0.74900
O279        O  0.06058955  0.28761374  0.95752699    -0.87700
O280        O  0.97276007  0.11969128  0.96255362    -0.80500
C281        C  0.06308395  0.20151642  0.89257829     0.93300
C282        C  0.06272105  0.35028441  0.88525907     0.93200
Mg283      Mg  0.43541549  0.15691994  0.02396074     1.58000
O284        O  0.43222850  0.13577558  0.08162680    -0.80400
O285        O  0.43149820  0.17085269  0.96398702    -0.74700
O286        O  0.06136199  0.23310865  0.88789496    -0.80500
O287        O  0.05790958  0.39381333  0.99070979    -0.82200
O288        O  0.43685458  0.26184819  0.11318503    -0.80600
C289        C  0.45537349  0.18932288  0.93843128     0.87600
O290        O  0.43636072  0.20888570  0.04229929    -0.87700
O291        O  0.99775181  0.18887942  0.02225337    -0.87800
O292        O  0.01562016  0.21295892  0.07649401    -0.74900
Mg293      Mg  0.02266292  0.25828685  0.91091372     1.58000
O294        O  0.04884411  0.17962884  0.92014450    -0.82200
H295        H  0.45437283  0.30596505  0.95183410    -0.06000
O296        O  0.00649340  0.28623564  0.05671758    -0.87500
H297        H  0.05503758  0.30546110  0.08712247    -0.05800
H298        H  0.38171677  0.19099238  0.02466628    -0.06000
C299        C  0.04274724  0.30567037  0.06101564     0.87600
C300        C  0.47729407  0.29848470  0.95196788     0.88200
C301        C  0.41121164  0.21560195  0.02975179     0.88200
H302        H  0.04079754  0.18663316  0.04896690    -0.05900
O303        O  0.07700494  0.24621380  0.97984773    -0.75000
Mg304      Mg  0.47432550  0.23655695  0.08945601     1.58000
H305        H  0.11494196  0.30566739  0.97605071    -0.06000
C306        C  0.04314553  0.39962355  0.01864381     0.93200
O307        O  0.45003443  0.31611813  0.08212068    -0.82200
C308        C  0.43596805  0.29388571  0.10945468     0.93300
O309        O  0.05480475  0.31533531  0.87609753    -0.82200
Mg310      Mg  0.02239629  0.18423272  0.97199171     1.58200
O311        O  0.52631697  0.37422385  0.04156147    -0.80500
O312        O  0.43715454  0.10308329  0.00987661    -0.82200
O313        O  0.14814580  0.01684897  0.67685297    -0.87800
C314        C  0.18398755  0.10287403  0.75229921     0.88200
Mg315      Mg  0.18383163  0.01958704  0.63116175     1.58100
O316        O  0.10734718  0.08826927  0.69324317    -0.87500
O317        O  0.08823500  0.00027185  0.69234536    -0.74900
C318        C  0.23193959  0.19193580  0.55476934     0.93300
O319        O  0.23518767  0.07816090  0.70116162    -0.74700
O320        O  0.24755196  0.17012667  0.55634984    -0.82200
Mg321      Mg  0.17764473  0.02939889  0.72817541     1.58000
C322        C  0.12079573  0.19033596  0.64591414     0.93200
O323        O  0.12864527  0.47998983  0.76034051    -0.80400
H324        H  0.05415295  0.05320629  0.67105883    -0.05800
C325        C  0.21926213  0.17445496  0.66073591     0.88100
O326        O  0.14629624  0.03270004  0.59258183    -0.74900
O327        O  0.15887371  0.07058741  0.73925845    -0.87700
O328        O  0.11321120  0.16987346  0.67437751    -0.80500
C329        C  0.09990364  0.12484551  0.77935354     0.93300
C330        C  0.09964775  0.47382871  0.78016453     0.93200
Mg331      Mg  0.15237575  0.13744953  0.60747182     1.58000
O332        O  0.20295668  0.18549838  0.57455103    -0.80400
O333        O  0.09581615  0.08916779  0.63517150    -0.74700
O334        O  0.09436366  0.08954448  0.77936197    -0.80500
O335        O  0.19739682  0.48293147  0.71599953    -0.82200
O336        O  0.23939927  0.07957133  0.55688982    -0.80600
C337        C  0.08450037  0.07622804  0.66698514     0.87600
O338        O  0.17261476  0.09704903  0.59658797    -0.87700
O339        O  0.18332851  0.15172903  0.65809520    -0.87800
O340        O  0.24330223  0.16914056  0.64236269    -0.74900
Mg341      Mg  0.09545937  0.04621309  0.73550444     1.58000
O342        O  0.11640314  0.14871927  0.75347770    -0.82200
H343        H  0.10070226  0.97108937  0.65399877    -0.06000
O344        O  0.22490809  0.08101497  0.64302328    -0.87500
H345        H  0.27757568  0.11560421  0.66640445    -0.05800
H346        H  0.12859205  0.06394194  0.56208828    -0.06000
C347        C  0.24715531  0.09241945  0.66974108     0.87600
C348        C  0.11210752  0.99489222  0.67366720     0.88200
C349        C  0.14877478  0.06487615  0.58248723     0.88200
H350        H  0.23043151  0.19876333  0.67985350    -0.05900
O351        O  0.18748839  0.13528954  0.74158736    -0.75000
Mg352      Mg  0.23638104  0.12278092  0.60015290     1.58000
H353        H  0.20463682  0.10363946  0.77208010    -0.06000
C354        C  0.21290094  0.47761599  0.68827336     0.93200
O355        O  0.21966991  0.02118782  0.58351038    -0.82200
C356        C  0.23582581  0.04503075  0.55748202     0.93300
O357        O  0.08246834  0.99827080  0.77880447    -0.82200
Mg358      Mg  0.14970449  0.14950873  0.70470442     1.58200
O359        O  0.22214245  0.50015527  0.66107855    -0.80500
O360        O  0.13499285  0.18330495  0.61815402    -0.82200
C361        C  0.11244221  0.18724408  0.86187725     0.02800
C362        C  0.07570611  0.18547599  0.86276326     0.02800
C363        C  0.04639477  0.16168890  0.83751456    -0.17700
C364        C  0.05199554  0.13887808  0.81152361     0.02800
C365        C  0.08867738  0.14046158  0.81042582     0.02800
C366        C  0.11844850  0.16471340  0.83559502    -0.17700
H367        H  0.14657412  0.16596813  0.83476504     0.04800
H368        H  0.01826756  0.16050651  0.83839193     0.04800
C369        C  0.07237099  0.38131419  0.85781790     0.02800
C370        C  0.10919383  0.41731136  0.85784699     0.02800
C371        C  0.11605543  0.44646576  0.83230856    -0.17700
C372        C  0.08694324  0.44213743  0.80777757     0.02800
C373        C  0.04882996  0.40775616  0.80966488     0.02800
C374        C  0.04236892  0.37734329  0.83411645    -0.17700
H375        H  0.01376076  0.35028466  0.83463439     0.04800
H376        H  0.14469150  0.47360088  0.83191028     0.04800
O377        O  0.48474563  0.13362478  0.67867216    -0.87800
C378        C  0.39694323  0.08744580  0.75044543     0.88200
Mg379      Mg  0.48552969  0.16777459  0.63260055     1.58100
O380        O  0.40886084  0.02230326  0.69297819    -0.87500
O381        O  0.49797582  0.08838633  0.69611677    -0.74900
C382        C  0.31547193  0.05100744  0.55183270     0.93300
O383        O  0.42800348  0.16513905  0.69998382    -0.74700
O384        O  0.33938183  0.08847872  0.55324794    -0.82200
Mg385      Mg  0.47347373  0.15316775  0.72870705     1.58000
C386        C  0.30864473  0.43689600  0.64033697     0.93200
O387        O  0.01726168  0.14427013  0.76281071    -0.80400
H388        H  0.44186806  0.00121968  0.67327119    -0.05800
C389        C  0.32797807  0.05236299  0.65572600     0.88100
O390        O  0.47149931  0.11609995  0.59433444    -0.74900
O391        O  0.42896762  0.09309114  0.73947488    -0.87700
O392        O  0.32976262  0.44874288  0.66865281    -0.80500
C393        C  0.36708457  0.97649382  0.77689216     0.93300
C394        C  0.02094040  0.12023290  0.78326266     0.93200
Mg395      Mg  0.36435582  0.02052676  0.60536324     1.58000
O396        O  0.31955073  0.02674746  0.57154576    -0.80400
O397        O  0.40904027  0.00887156  0.63527890    -0.74700
O398        O  0.40284904  0.00551391  0.77876344    -0.80500
O399        O  0.02050226  0.21325303  0.72020396    -0.82200
O400        O  0.43017856  0.16565034  0.55628495    -0.80600
C401        C  0.42050487  0.01012829  0.66772223     0.87600
O402        O  0.40723835  0.08081500  0.59591705    -0.87700
O403        O  0.34993650  0.03848896  0.65477589    -0.87800
O404        O  0.33577421  0.08316812  0.63800343    -0.74900
Mg405      Mg  0.44932306  0.05064134  0.73703334     1.58000
O406        O  0.34552819  0.46966481  0.74881877    -0.82200
H407        H  0.53055433  0.13091848  0.65933083    -0.06000
O408        O  0.42520068  0.14963577  0.64242650    -0.87500
H409        H  0.39295413  0.17113734  0.66319995    -0.05800
H410        H  0.43883772  0.06719519  0.56303546    -0.06000
C411        C  0.41458982  0.16242730  0.66802595     0.87600
C412        C  0.50562805  0.11852722  0.67727486     0.88200
C413        C  0.43888084  0.08736781  0.58311839     0.88200
H414        H  0.30208289  0.03847237  0.67255015    -0.05900
O415        O  0.36447580  0.05916734  0.73834182    -0.75000
Mg416      Mg  0.38496170  0.12164648  0.59823852     1.58000
H417        H  0.39658933  0.10815012  0.76966894    -0.06000
C418        C  0.02730059  0.23478459  0.69265358     0.93200
O419        O  0.48765569  0.20313900  0.58481828    -0.82200
C420        C  0.46507979  0.19587625  0.55784077     0.93300
O421        O  0.49608818  0.08444915  0.78191738    -0.82200
Mg422      Mg  0.34858199  0.00581018  0.70152797     1.58200
O423        O  0.00478490  0.22253076  0.66526736    -0.80500
O424        O  0.31661754  0.45897567  0.61302496    -0.82200
O425        O  0.47306850  0.33392924  0.68754743    -0.87800
C426        C  0.44689855  0.42148674  0.69704379     0.88200
Mg427      Mg  0.48002824  0.31082951  0.63697769     1.58100
O428        O  0.37341657  0.32490397  0.72191061    -0.87500
O429        O  0.44586531  0.31481448  0.74044137    -0.74900
C430        C  0.31418466  0.26510182  0.54880306     0.93300
O431        O  0.49249342  0.40320500  0.63217559    -0.74700
O432        O  0.34911438  0.27450262  0.53927254    -0.82200
Mg433      Mg  0.00781356  0.39834912  0.69222329     1.58000
C434        C  0.26188897  0.28454158  0.67853962     0.93200
O435        O  0.02709893  0.39963249  0.74974122    -0.80400
H436        H  0.35509003  0.27623031  0.75189649    -0.05800
C437        C  0.36486832  0.35421527  0.61615693     0.88100
O438        O  0.41950309  0.25433362  0.64262795    -0.74900
O439        O  0.45290593  0.39577296  0.70955136    -0.87700
O440        O  0.28753300  0.30879548  0.70092431    -0.80500
C441        C  0.36749613  0.39796835  0.77472937     0.93300
C442        C  0.51526422  0.39834631  0.78258473     0.93200
Mg443      Mg  0.32583076  0.26909050  0.63933343     1.58000
O444        O  0.30553272  0.26577470  0.58163219    -0.80400
O445        O  0.33876789  0.26453120  0.69919649    -0.74700
O446        O  0.39845199  0.39557593  0.77981748    -0.80500
O447        O  0.06337626  0.39959822  0.67852285    -0.82200
O448        O  0.43447117  0.27291146  0.55096898    -0.80600
C449        C  0.35547532  0.28833726  0.72559197     0.87600
O450        O  0.37843108  0.27132461  0.62154210    -0.87700
O451        O  0.35726485  0.33308335  0.64308260    -0.87800
O452        O  0.38292430  0.35064593  0.58946705    -0.74900
Mg453      Mg  0.42430328  0.35763897  0.75585677     1.58000
O454        O  0.34649270  0.38476455  0.74620729    -0.82200
H455        H  0.47180954  0.28868208  0.71384374    -0.06000
O456        O  0.45715559  0.34314263  0.60891447    -0.87500
H457        H  0.47538127  0.39225274  0.57954351    -0.05800
H458        H  0.36067226  0.21580107  0.63722344    -0.06000
C459        C  0.47513853  0.37976808  0.60562264     0.87600
C460        C  0.46429085  0.31172160  0.71382205     0.88200
C461        C  0.38501548  0.24575560  0.63338864     0.88200
H462        H  0.35651410  0.37663138  0.61553626    -0.05900
O463        O  0.41272005  0.41332480  0.68719800    -0.75000
Mg464      Mg  0.40616225  0.30899781  0.57477475     1.58000
H465        H  0.47160220  0.45117775  0.69291734    -0.06000
C466        C  0.07227340  0.38381720  0.65333150     0.96800
O467        O  0.48727757  0.28671431  0.58472519    -0.82200
C468        C  0.46674178  0.27293403  0.55617289     0.93300
O469        O  0.48053667  0.38965869  0.79182453    -0.82200
Mg470      Mg  0.35171119  0.35803966  0.69356108     1.58200
O471        O  0.04683731  0.36065828  0.63028120    -0.80500
O472        O  0.27047105  0.26792009  0.65381201    -0.82200
C473        C  0.30775649  0.38692826  0.85757975     0.02800
C474        C  0.30518812  0.42182067  0.85674632     0.02800
C475        C  0.32696007  0.45109930  0.83073991    -0.17700
C476        C  0.35040335  0.44609745  0.80507147     0.02800
C477        C  0.35149113  0.41045508  0.80491697     0.02800
C478        C  0.33082787  0.38192308  0.83160127    -0.17700
H479        H  0.33184294  0.35467761  0.83156603     0.04800
H480        H  0.32597819  0.47834736  0.83071092     0.04800
C481        C  0.02478167  0.24306655  0.47428077     0.02800
C482        C  0.02962784  0.28125378  0.47595209     0.02800
C483        C  0.00919283  0.28903222  0.50273443    -0.17700
C484        C  0.48377965  0.26044613  0.52710911     0.02800
C485        C  0.48158509  0.22323489  0.52725534     0.02800
C486        C  0.00222598  0.21445599  0.50032881    -0.17700
H487        H  0.99998340  0.18560673  0.49947619     0.04800
H488        H  0.01149613  0.31790363  0.50354618     0.04800
C489        C  0.21939653  0.24851180  0.47804758     0.02800
C490        C  0.25807280  0.28141592  0.47408451     0.02800
C491        C  0.28900425  0.28379911  0.49550847    -0.17700
C492        C  0.28241143  0.25532947  0.52188457     0.02800
C493        C  0.24341385  0.22305483  0.52670573     0.02800
C494        C  0.21264647  0.22035477  0.50478953    -0.17700
H495        H  0.18315229  0.19484824  0.50758567     0.04800
H496        H  0.31850885  0.30926991  0.49260268     0.04800
C497        C  0.26169435  0.48518948  0.47282210     0.02800
C498        C  0.22464979  0.48309601  0.47510101     0.02800
C499        C  0.21776432  0.00470989  0.50192048    -0.17700
C500        C  0.24758776  0.02976232  0.52624400     0.02800
C501        C  0.28494574  0.03300174  0.52356370     0.02800
C502        C  0.29158787  0.01187779  0.49628555    -0.17700
H503        H  0.32024560  0.01434978  0.49452228     0.04800
H504        H  0.18887791  0.00163845  0.50409225     0.04800
C505        C  0.03964432  0.01525082  0.01455712     0.02800
C506        C  0.01498028  0.47636349  0.00166585     0.02800
C507        C  0.47451908  0.46177409  0.00119281     0.02800
C508        C  0.45829202  0.98541594  0.01216255     0.02800
C509        C  0.98338426  0.02373308  0.02200674     0.02800
C510        C  0.02404747  0.03891798  0.02532206     0.02800
C511        C  0.36822866  0.16301541  0.30764945     0.02800
C512        C  0.33168590  0.13491971  0.29275805     0.02800
C513        C  0.30000883  0.14195413  0.29232476     0.02800
C514        C  0.30544290  0.17815006  0.30546774     0.02800
C515        C  0.34167133  0.20560969  0.32231395     0.02800
C516        C  0.37357248  0.19869713  0.32187766     0.02800
C517        C  0.19013361  0.31921288  0.68002028     0.02800
C518        C  0.20818056  0.35967738  0.67094791     0.02800
C519        C  0.18544896  0.37559032  0.65782231     0.02800
C520        C  0.14498401  0.35004967  0.65032904     0.02800
C521        C  0.12703173  0.30956578  0.65922522     0.02800
C522        C  0.14966860  0.29370838  0.67262799     0.02800
C523        C  0.11183029  0.38873802  0.65422804    -0.15900
C524        C  0.11962218  0.36443968  0.63505350    -0.31100
H525        H  0.13042968  0.40480892  0.67723335     0.13100
H526        H  0.09931268  0.34637583  0.61365159     0.13700
C527        C  0.22235882  0.27955522  0.67766382    -0.15900
C528        C  0.21518296  0.30482431  0.69593874    -0.31100
H529        H  0.20346563  0.26278913  0.65504449     0.13100
H530        H  0.23569279  0.32335157  0.71702792     0.13700
C531        C  0.27129073  0.39899446  0.64064397    -0.15900
C532        C  0.25160869  0.38519482  0.67172954    -0.31100
H533        H  0.25565049  0.38763571  0.61512908     0.13100
H534        H  0.26590451  0.39721822  0.69763289     0.13700
C535        C  0.08364327  0.28430666  0.65923083    -0.15900
C536        C  0.06469236  0.27241318  0.69084302    -0.31100
H537        H  0.06883693  0.27071485  0.63386414     0.13100
H538        H  0.08093585  0.28502671  0.71588656     0.13700
C539        C  0.13193760  0.25015450  0.67630798    -0.15900
C540        C  0.11847705  0.22658203  0.64680432    -0.31100
H541        H  0.13863891  0.23931896  0.70075409     0.13100
H542        H  0.11623017  0.23891956  0.62124699     0.13700
C543        C  0.20275495  0.41922250  0.65560830    -0.15900
C544        C  0.21532997  0.44147182  0.68595539    -0.31100
H545        H  0.19636830  0.43098011  0.63161221     0.13100
H546        H  0.21706851  0.42804020  0.71103557     0.13700
C547        C  0.46879601  0.05280160  0.01987318    -0.15900
C548        C  0.45751257  0.06047574  0.98800663    -0.31100
H549        H  0.97180573  0.06887027  0.04534834     0.13100
H550        H  0.45821438  0.04543306  0.96351480     0.13700
C551        C  0.04249399  0.43646941  0.02261607    -0.15900
C552        C  0.03053445  0.44967920  0.99471476    -0.31100
H553        H  0.54573554  0.44958783  0.05001656     0.13100
H554        H  0.02495977  0.43517137  0.96846470     0.13700
C555        C  0.06001100  0.11187317  0.02207707    -0.15900
C556        C  0.05098564  0.07893757  0.04056749    -0.31100
H557        H  0.04281609  0.10979003  0.99826995     0.13100
H558        H  0.07035042  0.08052094  0.06234230     0.13700
C559        C  0.43792214  0.38884191  0.99346235    -0.15900
C560        C  0.44829623  0.42479952  0.98074688    -0.31100
H561        H  0.45236401  0.38650335  0.01763700     0.13100
H562        H  0.43255114  0.42729418  0.95773854     0.13700
C563        C  0.38682858  0.45078954  0.00622241    -0.15900
C564        C  0.41755927  0.46519876  0.02870088    -0.31100
H565        H  0.39003841  0.44509469  0.97814248     0.13100
H566        H  0.41540726  0.97733207  0.05350973     0.13700
C567        C  0.08284139  0.03221604  0.01425155    -0.15900
C568        C  0.10223071  0.04063077  0.98280821    -0.31100
H569        H  0.09710950  0.03209212  0.03939618     0.13100
H570        H  0.08660165  0.53651099  0.95860975     0.13700
C571        C  0.31210261  0.06842821  0.31170562    -0.15900
C572        C  0.32409157  0.09468986  0.28476341    -0.31100
H573        H  0.30946693  0.07741522  0.33887436     0.13100
H574        H  0.32718162  0.08683154  0.25731814     0.13700
C575        C  0.36273663  0.27629291  0.32715096    -0.15900
C576        C  0.34612461  0.24057995  0.34227205    -0.31100
H577        H  0.37161084  0.27950564  0.29903120     0.13100
H578        H  0.33882255  0.23721341  0.37078663     0.13700
C579        C  0.25978667  0.10673412  0.28979879    -0.15900
C580        C  0.24664568  0.08504478  0.31999016    -0.31100
H581        H  0.24857071  0.09298968  0.26354163     0.13100
H582        H  0.26085225  0.09865333  0.34562172     0.13700
C583        C  0.42295341  0.25509414  0.35815887    -0.15900
C584        C  0.41393366  0.23202485  0.32876779    -0.31100
H585        H  0.40576884  0.24408288  0.38268122     0.13100
H586        H  0.43302082  0.24304015  0.30532800     0.13700
C587        C  0.26293945  0.20368327  0.32534474    -0.15900
C588        C  0.27359700  0.18722585  0.29954715    -0.31100
H589        H  0.27481574  0.20750730  0.35240100     0.13100
H590        H  0.25828242  0.17941249  0.27366921     0.13700
C591        C  0.39899354  0.15228645  0.31170777    -0.15900
C592        C  0.40844972  0.14419077  0.34424243    -0.31100
H593        H  0.41014724  0.14613895  0.28723353     0.13100
H594        H  0.39735635  0.15031538  0.36875194     0.13700
O595        O  0.14213887  0.66983833  0.35594425    -0.87800
C596        C  0.11724358  0.75807249  0.36589593     0.88200
Mg597      Mg  0.14653555  0.64547975  0.30476725     1.58100
O598        O  0.04606938  0.65993418  0.38910950    -0.87500
O599        O  0.11962611  0.65197968  0.41017705    -0.74900
C600        C  0.98190958  0.60017079  0.21602177     0.93300
O601        O  0.16084363  0.73744200  0.29994170    -0.74700
O602        O  0.01680991  0.60910413  0.20727445    -0.82200
Mg603      Mg  0.17576641  0.73375094  0.36000023     1.58000
C604        C  0.43560480  0.62867684  0.34614273     0.93200
O605        O  0.19753666  0.73854245  0.41847431    -0.80400
H606        H  0.02613783  0.61102881  0.41918657    -0.05800
C607        C  0.03359421  0.68957854  0.28452405     0.88100
O608        O  0.08606581  0.58918115  0.31234812    -0.74900
O609        O  0.12440710  0.73301037  0.37816286    -0.87700
O610        O  0.45988055  0.64054328  0.37219490    -0.80500
C611        C  0.03824154  0.73011095  0.44365639     0.93300
C612        C  0.18823593  0.73908390  0.45124682     0.93200
Mg613      Mg  0.99261721  0.60462900  0.30691704     1.58000
O614        O  0.47230943  0.60226175  0.24944191    -0.80400
O615        O  0.00626988  0.59995460  0.36725910    -0.74700
O616        O  0.07060056  0.73041248  0.44751562    -0.80500
O617        O  0.22879963  0.73055065  0.34579955    -0.82200
O618        O  0.09868668  0.60573577  0.21975528    -0.80600
C619        C  0.02627623  0.62341402  0.39308769     0.87600
O620        O  0.04400761  0.60425085  0.28951485    -0.87700
O621        O  0.02748402  0.66861227  0.31126453    -0.87800
O622        O  0.05013684  0.68560447  0.25691145    -0.74900
Mg623      Mg  0.09671502  0.69378307  0.42408803     1.58000
O624        O  0.01621176  0.71564176  0.41602266    -0.82200
H625        H  0.14580622  0.62708044  0.38203140    -0.06000
O626        O  0.12279490  0.67713019  0.27791441    -0.87500
H627        H  0.14119813  0.72591331  0.24798980    -0.05800
H628        H  0.02727727  0.54989759  0.30801233    -0.06000
C629        C  0.14157504  0.71370416  0.27404790     0.87600
C630        C  0.13658776  0.64884020  0.38253082     0.88200
C631        C  0.05130085  0.57972481  0.30292956     0.88200
H632        H  0.02501873  0.71183286  0.28474979    -0.05900
O633        O  0.08257680  0.74891786  0.35652109    -0.75000
Mg634      Mg  0.07249173  0.64306162  0.24320798     1.58000
H635        H  0.14128906  0.78811481  0.36174383    -0.06000
C636        C  0.23385525  0.71332300  0.31925660     0.93200
O637        O  0.15235431  0.62038350  0.25221213    -0.82200
C638        C  0.13086600  0.60570175  0.22430233     0.93300
O639        O  0.15283682  0.72829719  0.46013158    -0.82200
Mg640      Mg  0.02231563  0.69217611  0.36285371     1.58200
O641        O  0.20801270  0.69697182  0.29465316    -0.80500
O642        O  0.43912615  0.60965745  0.32017844    -0.82200
C643        C  0.14650496  0.59211555  0.19497235     0.02800
C644        C  0.14118968  0.55371511  0.19383877     0.02800
C645        C  0.16243783  0.54519573  0.16814818    -0.17700
C646        C  0.18891531  0.57424519  0.14371828     0.02800
C647        C  0.19249846  0.61228990  0.14409526     0.02800
C648        C  0.17152754  0.62053852  0.16995997    -0.17700
H649        H  0.17476272  0.64983538  0.17063053     0.04800
H650        H  0.15897567  0.51582875  0.16766435     0.04800
C651        C  0.41539477  0.55392021  0.18840483     0.02800
C652        C  0.45112672  0.59108154  0.18898798     0.02800
C653        C  0.45518092  0.62141964  0.16573877    -0.17700
C654        C  0.42477192  0.61558000  0.14171116     0.02800
C655        C  0.38956182  0.57798802  0.14031986     0.02800
C656        C  0.38561065  0.54805664  0.16382088    -0.17700
H657        H  0.35836953  0.51947967  0.16323799     0.04800
H658        H  0.48238611  0.64998773  0.16636042     0.04800
O659        O  0.03517842  0.85954419  0.31225793    -0.87800
C660        C  0.04087617  0.96577291  0.30396811     0.88200
Mg661      Mg  0.03430260  0.83120263  0.36316074     1.58100
O662        O  0.11865770  0.95068030  0.27809273    -0.87500
O663        O  0.05101616  0.86449238  0.25600301    -0.74900
C664        C  0.19289869  0.96240171  0.44798843     0.93300
O665        O  0.00733744  0.89916947  0.36987328    -0.74700
O666        O  0.15948829  0.93337980  0.45752926    -0.82200
Mg667      Mg  0.99259515  0.87875317  0.30988821     1.58000
C668        C  0.22103578  0.54306436  0.32081283     0.93200
O669        O  0.46936580  0.86037425  0.25197458    -0.80400
H670        H  0.14276550  0.92721717  0.24648762    -0.05800
C671        C  0.13142190  0.99236698  0.38380062     0.88100
O672        O  0.09640209  0.84189117  0.35449163    -0.74900
O673        O  0.03758745  0.93519462  0.29066816    -0.87700
O674        O  0.19736878  0.52515927  0.29526523    -0.80500
C675        C  0.12183125  0.52549233  0.22377434     0.93300
C676        C  0.97715273  0.87311965  0.21964968     0.93200
Mg677      Mg  0.17826725  0.95824851  0.35810735     1.58000
O678        O  0.19986216  0.97555179  0.41590852    -0.80400
O679        O  0.16438175  0.93891164  0.29783969    -0.74700
O680        O  0.09186507  0.99152934  0.21811051    -0.80500
O681        O  0.44718604  0.81548205  0.32370968    -0.82200
O682        O  0.07818802  0.84483570  0.45035563    -0.80600
C683        C  0.14179717  0.93856149  0.27288966     0.87600
O684        O  0.13279985  0.90154094  0.37687474    -0.87700
O685        O  0.13584271  0.97762860  0.35618019    -0.87800
O686        O  0.11986545  0.97223312  0.41241966    -0.74900
Mg687      Mg  0.06782852  0.92876666  0.24370766     1.58000
O688        O  0.13913214  0.53572111  0.25411353    -0.82200
H689        H  0.03329316  0.81424927  0.28510948    -0.06000
O690        O  0.05234028  0.88651157  0.39016334    -0.87500
H691        H  0.02922699  0.91148978  0.42112059    -0.05800
H692        H  0.15600013  0.86952677  0.35897363    -0.06000
C693        C  0.02978249  0.89944738  0.39494974     0.87600
C694        C  0.03956552  0.84460110  0.28475744     0.88200
C695        C  0.12971041  0.87095287  0.36380981     0.88200
H696        H  0.13774427  0.02274014  0.38367312    -0.05900
O697        O  0.07418376  0.99452649  0.31370785    -0.75000
Mg698      Mg  0.10277053  0.90775141  0.42436428     1.58000
H699        H  0.01470383  0.96741552  0.30873453    -0.06000
C700        C  0.44945238  0.79694284  0.35068393     0.93200
O701        O  0.02973030  0.80078522  0.41488249    -0.82200
C702        C  0.04784360  0.81046261  0.44481117     0.93300
O703        O  0.01067196  0.90225692  0.21030821    -0.82200
Mg704      Mg  0.13510797  0.50626456  0.30632687     1.58200
O705        O  0.47275237  0.81594781  0.37596134    -0.80500
O706        O  0.22246328  0.52342927  0.34722614    -0.82200
O707        O  0.31497044  0.85192862  0.34387819    -0.87800
C708        C  0.35641739  0.94139090  0.41797757     0.88200
Mg709      Mg  0.34741410  0.84929727  0.29762086     1.58100
O710        O  0.27964942  0.92543550  0.35842176    -0.87500
O711        O  0.25647638  0.83626064  0.36258448    -0.74900
C712        C  0.40411859  0.52224311  0.21576097     0.93300
O713        O  0.40402905  0.91080650  0.36413097    -0.74700
O714        O  0.41723886  0.99650170  0.21551109    -0.82200
Mg715      Mg  0.34709857  0.86558537  0.39418964     1.58000
C716        C  0.30235713  0.52687049  0.30848039     0.93200
O717        O  0.29666213  0.82078525  0.42809850    -0.80400
H718        H  0.22609290  0.89095230  0.33665091    -0.05800
C719        C  0.39281321  0.00675611  0.32112779     0.88100
O720        O  0.31016252  0.86159683  0.25824788    -0.74900
O721        O  0.33102069  0.90921643  0.40497796    -0.87700
O722        O  0.28736638  0.50205407  0.33372537    -0.80500
C723        C  0.27294176  0.96875867  0.44185907     0.93300
C724        C  0.26889299  0.81555688  0.44879317     0.93200
Mg725      Mg  0.32517834  0.96959524  0.26991913     1.58000
O726        O  0.37619010  0.51653429  0.23664870    -0.80400
O727        O  0.26805840  0.92455574  0.29996196    -0.74700
O728        O  0.26726503  0.93332613  0.44428011    -0.80500
O729        O  0.35660359  0.81417266  0.38486771    -0.82200
O730        O  0.40304540  0.90285650  0.22073852    -0.80600
C731        C  0.25669713  0.91296515  0.33217245     0.87600
O732        O  0.34087210  0.92634032  0.25952669    -0.87700
O733        O  0.35677692  0.98395547  0.32071067    -0.87800
O734        O  0.41528451  0.00010091  0.30166507    -0.74900
Mg735      Mg  0.26731641  0.88579760  0.40308493     1.58000
O736        O  0.29015396  0.99078607  0.41484725    -0.82200
H737        H  0.26620271  0.80393161  0.32540142    -0.06000
O738        O  0.39153153  0.91066583  0.30604379    -0.87500
H739        H  0.44540891  0.94492969  0.32721819    -0.05800
H740        H  0.29544242  0.89406319  0.22604614    -0.06000
C741        C  0.41489828  0.92285616  0.33195646     0.87600
C742        C  0.27889784  0.82950633  0.34316877     0.88200
C743        C  0.31515880  0.89428908  0.24657624     0.88200
H744        H  0.40394155  0.53355169  0.33878664    -0.05900
O745        O  0.36066976  0.97392586  0.40663189    -0.75000
Mg746      Mg  0.40431309  0.95022462  0.26144937     1.58000
H747        H  0.37630946  0.94189819  0.43846448    -0.06000
C748        C  0.36800147  0.80692981  0.35561152     0.93200
O749        O  0.38023930  0.84535617  0.25010729    -0.82200
C750        C  0.39704784  0.86742576  0.22315736     0.93300
O751        O  0.25506267  0.83904081  0.44851937    -0.82200
Mg752      Mg  0.32382528  0.98672798  0.36691929     1.58200
O753        O  0.38385789  0.83349572  0.33188841    -0.80500
O754        O  0.31415094  0.51865872  0.28003862    -0.82200
C755        C  0.40817602  0.84978607  0.19354239     0.02800
C756        C  0.44549496  0.85251033  0.19218509     0.02800
C757        C  0.45269543  0.83218437  0.16496980    -0.17700
C758        C  0.42392073  0.80937686  0.13902464     0.02800
C759        C  0.38680573  0.80645915  0.14026756     0.02800
C760        C  0.37916490  0.82642869  0.16771098    -0.17700
H761        H  0.35082413  0.82473966  0.16835442     0.04800
H762        H  0.48132167  0.83451408  0.16369237     0.04800
O763        O  0.17939100  0.97917470  0.99019384    -0.87800
C764        C  0.26609111  0.51810425  0.91549717     0.88200
Mg765      Mg  0.18119643  0.01215635  0.03806834     1.58100
O766        O  0.24862671  0.93951068  0.97325190    -0.87500
O767        O  0.16159102  0.91953373  0.97087180    -0.74900
C768        C  0.35750552  0.56585706  0.11296404     0.93300
O769        O  0.23953292  0.56675906  0.97044775    -0.74700
O770        O  0.33367087  0.57914740  0.11389949    -0.82200
Mg771      Mg  0.19281827  0.01167214  0.94064106     1.58000
C772        C  0.34943794  0.95094045  0.01672879     0.93200
O773        O  0.14546209  0.96037995  0.90604118    -0.80400
H774        H  0.21339528  0.88558990  0.99413044    -0.05800
C775        C  0.33659872  0.55293022  0.00841131     0.88100
O776        O  0.19552891  0.97345127  0.07396006    -0.74900
O777        O  0.23412197  0.99329837  0.92849174    -0.87700
O778        O  0.32117725  0.93802658  0.99466490    -0.80500
C779        C  0.28711048  0.93188963  0.88789417     0.93300
C780        C  0.13974807  0.93193170  0.88510338     0.93200
Mg781      Mg  0.30367080  0.48526917  0.05894170     1.58000
O782        O  0.35215632  0.53782314  0.09159266    -0.80400
O783        O  0.25149679  0.92619554  0.03059666    -0.74700
O784        O  0.25319793  0.92897289  0.88596197    -0.80500
O785        O  0.14513648  0.52380264  0.95337794    -0.82200
O786        O  0.24078832  0.56819610  0.11464074    -0.80600
C787        C  0.23690810  0.91586934  0.99883001     0.87600
O788        O  0.26218795  0.50296833  0.07309385    -0.87700
O789        O  0.31390512  0.51662929  0.00950226    -0.87800
O790        O  0.33125957  0.57634644  0.02818454    -0.74900
Mg791      Mg  0.20887223  0.92892547  0.92935437     1.58000
O792        O  0.30914399  0.94597665  0.91541464    -0.82200
H793        H  0.13168736  0.93091391  0.00898316    -0.06000
O794        O  0.24249582  0.55452399  0.02807301    -0.87500
H795        H  0.27562046  0.60867257  0.00694523    -0.05800
H796        H  0.22602178  0.95458110  0.10396716    -0.06000
C797        C  0.25326443  0.57790437  0.00233636     0.87600
C798        C  0.15636839  0.94293315  0.99077008     0.88200
C799        C  0.22738936  0.97622230  0.08499808     0.88200
H800        H  0.36122570  0.56499149  0.99006192    -0.05900
O801        O  0.29850334  0.52174257  0.92599068    -0.75000
Mg802      Mg  0.28485612  0.56690810  0.07086942     1.58000
H803        H  0.26649085  0.53908220  0.89628238    -0.06000
C804        C  0.13880326  0.53793963  0.98162687     0.93200
O805        O  0.18166716  0.54277286  0.08809890    -0.82200
C806        C  0.20516754  0.56133657  0.11397250     0.93300
O807        O  0.16272053  0.91779376  0.88508392    -0.82200
Mg808      Mg  0.31133135  0.48238309  0.96243255     1.58200
O809        O  0.16075330  0.54683656  0.00933567    -0.80500
O810        O  0.34850459  0.96810347  0.04555227    -0.82200
O811        O  0.30135264  0.81508737  0.98875722    -0.87800
C812        C  0.25142944  0.72771270  0.91668889     0.88200
Mg813      Mg  0.33412943  0.81227740  0.03442419     1.58100
O814        O  0.19107052  0.74445238  0.97522646    -0.87500
O815        O  0.25950220  0.83305274  0.97266749    -0.74900
C816        C  0.21147322  0.64242113  0.11529196     0.93300
O817        O  0.32748818  0.75447370  0.96678779    -0.74700
O818        O  0.24892892  0.66509740  0.11384172    -0.82200
Mg819      Mg  0.31967148  0.80353550  0.93851785     1.58000
C820        C  0.10054905  0.64561438  0.02395365     0.93200
O821        O  0.31487563  0.85124608  0.90574323    -0.80400
H822        H  0.17302457  0.77981771  0.99593770    -0.05800
C823        C  0.21269052  0.65646731  0.01084873     0.88100
O824        O  0.28416723  0.80153416  0.07269066    -0.74900
O825        O  0.25915016  0.76114272  0.92689735    -0.87700
O826        O  0.11430283  0.66687649  0.99613177    -0.80500
C827        C  0.14338424  0.70415191  0.89018827     0.93300
C828        C  0.29078050  0.85603544  0.88626351     0.93200
Mg829      Mg  0.18527201  0.69593749  0.06189859     1.58000
O830        O  0.18825785  0.64805855  0.09543881    -0.80400
O831        O  0.17741361  0.74389305  0.03284991    -0.74700
O832        O  0.17325891  0.73957462  0.88874652    -0.80500
O833        O  0.38295190  0.85254168  0.95178721    -0.82200
O834        O  0.32807429  0.75599268  0.11114997    -0.80600
C835        C  0.18001361  0.75680518  0.00081897     0.87600
O836        O  0.24574919  0.73674511  0.07210964    -0.87700
O837        O  0.20154413  0.68077057  0.01222841    -0.87800
O838        O  0.24259192  0.66192728  0.02866357    -0.74900
Mg839      Mg  0.21953930  0.78487598  0.93138263     1.58000
O840        O  0.13707797  0.68169777  0.91689223    -0.82200
H841        H  0.30365775  0.86364383  0.00911970    -0.06000
O842        O  0.31151771  0.75067403  0.02420974    -0.87500
H843        H  0.32963620  0.71587816  0.00219701    -0.05800
H844        H  0.23574466  0.77193727  0.10417425    -0.06000
C845        C  0.32306689  0.73931347  0.99818767     0.87600
C846        C  0.28914945  0.83847552  0.99095929     0.88200
C847        C  0.25458732  0.76983536  0.08425771     0.88200
H848        H  0.19710971  0.63047207  0.99371144    -0.05900
O849        O  0.22246588  0.69609339  0.92918397    -0.75000
Mg850      Mg  0.28313108  0.71083617  0.06878798     1.58000
H851        H  0.27094166  0.72532076  0.89775874    -0.06000
C852        C  0.40194830  0.85313093  0.97979209     0.93200
O853        O  0.36830555  0.81213096  0.08199153    -0.82200
C854        C  0.35940482  0.79019283  0.10951808     0.93300
O855        O  0.25348658  0.83207194  0.88750858    -0.82200
Mg856      Mg  0.17032017  0.68294868  0.96558916     1.58200
O857        O  0.38699272  0.82412144  0.00110554    -0.80500
O858        O  0.12194361  0.65033625  0.05136319    -0.82200
O859        O  0.49806369  0.80615176  0.97806941    -0.87800
C860        C  0.08829544  0.78350537  0.96926405     0.88200
Mg861      Mg  0.47523934  0.81160310  0.02901964     1.58100
O862        O  0.49171318  0.70657671  0.94370070    -0.87500
O863        O  0.47956049  0.77836722  0.92491793    -0.74900
C864        C  0.43363480  0.64648977  0.11459837     0.93300
O865        O  0.06864221  0.82798289  0.03395018    -0.74700
O866        O  0.44257463  0.68156937  0.12403944    -0.82200
Mg867      Mg  0.06246012  0.84143261  0.97411166     1.58000
C868        C  0.45618738  0.59509050  0.98775742     0.93200
O869        O  0.06291472  0.86115468  0.91665867    -0.80400
H870        H  0.44401998  0.68572594  0.91188541    -0.05800
C871        C  0.02226401  0.69785929  0.04691814     0.88100
O872        O  0.41978575  0.75031615  0.02106819    -0.74900
O873        O  0.06311833  0.78973305  0.95596428    -0.87700
O874        O  0.97744299  0.62140752  0.96054660    -0.80500
C875        C  0.06707965  0.70432248  0.89013844     0.93300
C876        C  0.06374947  0.85203775  0.88391543     0.93200
Mg877      Mg  0.43658999  0.65695221  0.02438221     1.58000
O878        O  0.43387082  0.63716932  0.08187340    -0.80400
O879        O  0.43169181  0.66871413  0.96419970    -0.74700
O880        O  0.06468768  0.73557517  0.88543778    -0.80500
O881        O  0.05913097  0.89535414  0.98885799    -0.82200
O882        O  0.43672508  0.76200951  0.11188368    -0.80600
C883        C  0.45562321  0.68678149  0.93864099     0.87600
O884        O  0.43752747  0.70932918  0.04161635    -0.87700
O885        O  0.00104986  0.69057816  0.02004215    -0.87800
O886        O  0.01889626  0.71565785  0.07406813    -0.74900
Mg887      Mg  0.02552279  0.76022315  0.90912135     1.58000
O888        O  0.05343560  0.68263540  0.91793661    -0.82200
H889        H  0.45265757  0.80369302  0.95128100    -0.06000
O890        O  0.00917459  0.78859994  0.05521607    -0.87500
H891        H  0.05774067  0.80827100  0.08569766    -0.05800
H892        H  0.38254180  0.69067350  0.02449240    -0.06000
C893        C  0.04541442  0.80824920  0.05954580     0.87600
C894        C  0.47596746  0.79676237  0.95153963     0.88200
C895        C  0.41192523  0.71555362  0.02938828     0.88200
H896        H  0.04464964  0.68962909  0.04700902    -0.05900
O897        O  0.08023825  0.74880505  0.97809237    -0.75000
Mg898      Mg  0.47511365  0.73761303  0.08888010     1.58000
H899        H  0.11749374  0.80842839  0.97479733    -0.06000
C900        C  0.04479267  0.90126394  0.01701451     0.93200
O901        O  0.45098036  0.81702361  0.08156386    -0.82200
C902        C  0.43648896  0.79441336  0.10859067     0.93300
O903        O  0.05675772  0.81747028  0.87450764    -0.82200
Mg904      Mg  0.02628120  0.68647374  0.96989321     1.58200
O905        O  0.52620238  0.87480033  0.03982964    -0.80500
O906        O  0.43823849  0.60281359  0.01159040    -0.82200
O907        O  0.15014981  0.51608941  0.67682131    -0.87800
C908        C  0.18569213  0.60236940  0.75244931     0.88200
Mg909      Mg  0.18502505  0.51962906  0.63028605     1.58100
O910        O  0.10860571  0.58457506  0.69322230    -0.87500
O911        O  0.09015713  0.49753698  0.69347492    -0.74900
C912        C  0.23251791  0.69333170  0.55570600     0.93300
O913        O  0.23734139  0.57807189  0.70009308    -0.74700
O914        O  0.24791546  0.67127638  0.55646258    -0.82200
Mg915      Mg  0.18051234  0.52895845  0.72773324     1.58000
C916        C  0.11880557  0.68530041  0.64980021     0.93200
O917        O  0.12531366  0.98083495  0.75997481    -0.80400
H918        H  0.05570699  0.54865681  0.67074517    -0.05800
C919        C  0.21903198  0.67314733  0.66107765     0.88100
O920        O  0.14676522  0.53297662  0.59292114    -0.74900
O921        O  0.16111009  0.56966722  0.73956393    -0.87700
O922        O  0.10682531  0.65814595  0.67293130    -0.80500
C923        C  0.09976788  0.62214092  0.77899287     0.93300
C924        C  0.09657907  0.97518843  0.77983062     0.93200
Mg925      Mg  0.15284474  0.63742905  0.60806693     1.58000
O926        O  0.20369925  0.68672146  0.57587503    -0.80400
O927        O  0.09654843  0.58723099  0.63547176    -0.74700
O928        O  0.09606601  0.58757976  0.78007989    -0.80500
O929        O  0.19355920  0.98267140  0.71745450    -0.82200
O930        O  0.24047154  0.58084090  0.55587186    -0.80600
C931        C  0.08572058  0.57259979  0.66694707     0.87600
O932        O  0.17320964  0.59747843  0.59544629    -0.87700
O933        O  0.18332426  0.64936531  0.65840941    -0.87800
O934        O  0.24366679  0.66914537  0.64235117    -0.74900
Mg935      Mg  0.09737881  0.54387106  0.73615027     1.58000
O936        O  0.11445278  0.64489820  0.75220938    -0.82200
H937        H  0.10319892  0.46915116  0.65476873    -0.06000
O938        O  0.22601555  0.58110366  0.64222771    -0.87500
H939        H  0.27902527  0.61579051  0.66495881    -0.05800
H940        H  0.12799127  0.56330776  0.56246732    -0.06000
C941        C  0.24871533  0.59246780  0.66861975     0.87600
C942        C  0.11425870  0.49307397  0.67428104     0.88200
C943        C  0.14893395  0.56486894  0.58233779     0.88200
H944        H  0.22946805  0.69735282  0.68026479    -0.05900
O945        O  0.18796931  0.63435668  0.74185605    -0.75000
Mg946      Mg  0.23705558  0.62333442  0.59962251     1.58000
H947        H  0.20677461  0.60390231  0.77214751    -0.06000
C948        C  0.20973561  0.97773333  0.69010276     0.93200
O949        O  0.22025956  0.52215296  0.58208281    -0.82200
C950        C  0.23671033  0.54622312  0.55629251     0.93300
O951        O  0.08527650  0.49667030  0.77942960    -0.82200
Mg952      Mg  0.14833808  0.64578011  0.70443850     1.58200
O953        O  0.22086916  0.00149479  0.66373919    -0.80500
O954        O  0.13644977  0.68390447  0.62175639    -0.82200
C955        C  0.11465866  0.68678302  0.86027207     0.02800
C956        C  0.07944523  0.68810510  0.86009269     0.02800
C957        C  0.05034381  0.66577017  0.83419224    -0.17700
C958        C  0.05441764  0.64106434  0.80914003     0.02800
C959        C  0.08915132  0.63881211  0.80973343     0.02800
C960        C  0.11895552  0.66201677  0.83519414    -0.17700
H961        H  0.14599065  0.66104716  0.83530998     0.04800
H962        H  0.02328278  0.66674414  0.83415984     0.04800
C963        C  0.07236611  0.88305372  0.85679804     0.02800
C964        C  0.10836473  0.91991516  0.85731631     0.02800
C965        C  0.11388733  0.94927058  0.83247584    -0.17700
C966        C  0.08438561  0.94401515  0.80792656     0.02800
C967        C  0.04706613  0.90858685  0.80940706     0.02800
C968        C  0.04182355  0.87824620  0.83339346    -0.17700
H969        H  0.01377305  0.85053048  0.83370762     0.04800
H970        H  0.14198028  0.97702584  0.83224898     0.04800
O971        O  0.48396093  0.63724945  0.68056563    -0.87800
C972        C  0.39448608  0.58547273  0.75128738     0.88200
Mg973      Mg  0.48454867  0.67161374  0.63474770     1.58100
O974        O  0.40925605  0.52355290  0.69237786    -0.87500
O975        O  0.49777160  0.59187661  0.69630522    -0.74900
C976        C  0.31599145  0.55182257  0.55154299     0.93300
O977        O  0.42372161  0.66442502  0.70145553    -0.74700
O978        O  0.33978270  0.58932659  0.55283659    -0.82200
Mg979      Mg  0.46950520  0.65345921  0.73090383     1.58000
C980        C  0.30795948  0.93600297  0.64166864     0.93200
O981        O  0.01985342  0.64733001  0.76068861    -0.80400
H982        H  0.44285813  0.50316942  0.67265451    -0.05800
C983        C  0.32768993  0.55287773  0.65598383     0.88100
O984        O  0.47191987  0.62041146  0.59619669    -0.74900
O985        O  0.42678836  0.59250964  0.73976311    -0.87700
O986        O  0.32779986  0.94842741  0.67068448    -0.80500
C987        C  0.36780146  0.47530296  0.77567101     0.93300
C988        C  0.02342126  0.62296757  0.78082894     0.93200
Mg989      Mg  0.36494021  0.52218811  0.60525867     1.58000
O990        O  0.31991033  0.52786985  0.57175520    -0.80400
O991        O  0.40987957  0.51063178  0.63468351    -0.74700
O992        O  0.40322082  0.50503374  0.77780753    -0.80500
O993        O  0.02361063  0.71700110  0.71777238    -0.82200
O994        O  0.43049060  0.66699230  0.55668348    -0.80600
C995        C  0.42129366  0.51181733  0.66711372     0.87600
O996        O  0.40773010  0.58307290  0.59698430    -0.87700
O997        O  0.34960259  0.53890760  0.65487358    -0.87800
O998        O  0.33533346  0.58369055  0.63823804    -0.74900
Mg999      Mg  0.44935777  0.55181105  0.73652506     1.58000
O1000       O  0.34480358  0.97128076  0.75018668    -0.82200
H1001       H  0.53095392  0.63652375  0.66149387    -0.06000
O1002       O  0.42373343  0.65191253  0.64341479    -0.87500
H1003       H  0.38943169  0.67096871  0.66420484    -0.05800
H1004       H  0.44111699  0.57113988  0.56483809    -0.06000
C1005       C  0.41155959  0.66294964  0.66917332     0.87600
C1006       C  0.50545953  0.62285357  0.67879058     0.88200
C1007       C  0.43998617  0.59080732  0.58476971     0.88200
H1008       H  0.30188621  0.53900033  0.67291030    -0.05900
O1009       O  0.36239742  0.55680790  0.73900807    -0.75000
Mg1010     Mg  0.38455222  0.62302149  0.59855192     1.58000
H1011       H  0.39350702  0.60528312  0.77115961    -0.06000
C1012       C  0.02845770  0.73748746  0.68979085     0.93200
O1013       O  0.48654974  0.70694435  0.58648929    -0.82200
C1014       C  0.46485093  0.69807619  0.55855658     0.93300
O1015       O  0.49643125  0.58543957  0.78132605    -0.82200
Mg1016     Mg  0.34848512  0.50501668  0.70089458     1.58200
O1017       O  0.00278443  0.72477964  0.66492723    -0.80500
O1018       O  0.31630136  0.95762066  0.61398878    -0.82200
O1019       O  0.47457619  0.83497325  0.68861220    -0.87800
C1020       C  0.44854605  0.92299041  0.69845689     0.88200
Mg1021     Mg  0.48166202  0.81211241  0.63780130     1.58100
O1022       O  0.37371125  0.82675075  0.72367740    -0.87500
O1023       O  0.44633806  0.81609038  0.74125464    -0.74900
C1024       C  0.31486741  0.76740064  0.55046563     0.93300
O1025       O  0.49460700  0.90494002  0.63327613    -0.74700
O1026       O  0.34988298  0.77738963  0.54053409    -0.82200
Mg1027     Mg  0.00533173  0.89901196  0.69226716     1.58000
C1028       C  0.26247196  0.78580098  0.67808269     0.93200
O1029       O  0.02507438  0.90027025  0.74956552    -0.80400
H1030       H  0.35586675  0.77816877  0.75364502    -0.05800
C1031       C  0.36643929  0.85644417  0.61778420     0.88100
O1032       O  0.42104261  0.75582075  0.64294153    -0.74900
O1033       O  0.45417824  0.89687304  0.71045294    -0.87700
O1034       O  0.28724094  0.81277062  0.69939114    -0.80500
C1035       C  0.36878622  0.90037974  0.77579714     0.93300
C1036       C  0.51656682  0.89936498  0.78327793     0.93200
Mg1037     Mg  0.32781232  0.77084124  0.64094790     1.58000
O1038       O  0.30655388  0.76734131  0.58349292    -0.80400
O1039       O  0.34077181  0.76636510  0.70072402    -0.74700
O1040       O  0.39976561  0.89793022  0.78082713    -0.80500
O1041       O  0.06102748  0.90093040  0.67863655    -0.82200
O1042       O  0.43589316  0.77558631  0.55154196    -0.80600
C1043       C  0.35634723  0.79019665  0.72727567     0.87600
O1044       O  0.38047301  0.77381248  0.62276182    -0.87700
O1045       O  0.35855112  0.83511250  0.64459278    -0.87800
O1046       O  0.38476820  0.85312302  0.59121176    -0.74900
Mg1047     Mg  0.42533067  0.85943452  0.75697469     1.58000
O1048       O  0.34771659  0.88727985  0.74726903    -0.82200
H1049       H  0.47177335  0.78911932  0.71516906    -0.06000
O1050       O  0.45916102  0.84505248  0.60986154    -0.87500
H1051       H  0.47794254  0.89426817  0.58054155    -0.05800
H1052       H  0.36215011  0.71782039  0.63727334    -0.06000
C1053       C  0.47740095  0.88166480  0.60662515     0.87600
C1054       C  0.46490407  0.81262447  0.71489698     0.88200
C1055       C  0.38669518  0.74775913  0.63388297     0.88200
H1056       H  0.35822560  0.87896689  0.61724139    -0.05900
O1057       O  0.41442336  0.91532873  0.68905435    -0.75000
Mg1058     Mg  0.40768065  0.81145424  0.57590925     1.58000
H1059       H  0.47344467  0.95261731  0.69455113    -0.06000
C1060       C  0.06971463  0.88554191  0.65299737     0.96800
O1061       O  0.48867224  0.78864130  0.58512698    -0.82200
C1062       C  0.46809647  0.77539167  0.55652050     0.93300
O1063       O  0.48204077  0.89131094  0.79261771    -0.82200
Mg1064     Mg  0.35284449  0.86048810  0.69461804     1.58200
O1065       O  0.04440061  0.86392158  0.62917849    -0.80500
O1066       O  0.27235740  0.76806003  0.65572254    -0.82200
C1067       C  0.30829961  0.88747475  0.85832463     0.02800
C1068       C  0.30395114  0.92133891  0.85726684     0.02800
C1069       C  0.32509680  0.95086383  0.83126379    -0.17700
C1070       C  0.34971496  0.94708407  0.80604587     0.02800
C1071       C  0.35254146  0.91242184  0.80615162     0.02800
C1072       C  0.33248222  0.88370901  0.83275895    -0.17700
H1073       H  0.33460731  0.85707874  0.83279755     0.04800
H1074       H  0.32295996  0.97747037  0.83106288     0.04800
C1075       C  0.02349409  0.74355082  0.47348412     0.02800
C1076       C  0.02907989  0.78207546  0.47479807     0.02800
C1077       C  0.00893100  0.79080468  0.50128705    -0.17700
C1078       C  0.48465216  0.76254475  0.52735476     0.02800
C1079       C  0.48148354  0.72492333  0.52747497     0.02800
C1080       C  0.00011120  0.71540708  0.49953740    -0.17700
H1081       H  0.99723630  0.68627273  0.49913976     0.04800
H1082       H  0.01199059  0.82000655  0.50177342     0.04800
C1083       C  0.21943924  0.74999095  0.47926228     0.02800
C1084       C  0.25766654  0.78399712  0.47633844     0.02800
C1085       C  0.28866173  0.78685847  0.49816927    -0.17700
C1086       C  0.28265746  0.75787960  0.52386015     0.02800
C1087       C  0.24387900  0.72486543  0.52803898     0.02800
C1088       C  0.21308952  0.72165268  0.50574408    -0.17700
H1089       H  0.18391119  0.69551854  0.50796430     0.04800
H1090       H  0.31788884  0.81290602  0.49584519     0.04800
C1091       C  0.26190213  0.98687972  0.47185713     0.02800
C1092       C  0.22436141  0.98351047  0.47485493     0.02800
C1093       C  0.21865703  0.50566101  0.50113627    -0.17700
C1094       C  0.24856633  0.53095379  0.52519585     0.02800
C1095       C  0.28554721  0.53329746  0.52320145     0.02800
C1096       C  0.29158733  0.51066836  0.49695729    -0.17700
H1097       H  0.31999028  0.51252079  0.49567755     0.04800
H1098       H  0.19003063  0.50328715  0.50284769     0.04800
C1099       C  0.04008546  0.51514921  0.01535116     0.02800
C1100       C  0.01437582  0.97630639  0.00118023     0.02800
C1101       C  0.47349781  0.96243465  0.99814762     0.02800
C1102       C  0.45858250  0.48373442  0.01584484     0.02800
C1103       C  0.98399540  0.52427987  0.02091350     0.02800
C1104       C  0.02441915  0.53896442  0.02551405     0.02800
C1105       C  0.36865425  0.66272894  0.30582183     0.02800
C1106       C  0.33105720  0.63383140  0.29374684     0.02800
C1107       C  0.30032865  0.64218484  0.29151719     0.02800
C1108       C  0.30820812  0.68105415  0.29796219     0.02800
C1109       C  0.34668319  0.71084412  0.30864606     0.02800
C1110       C  0.37663588  0.70132845  0.31306434     0.02800
C1111       C  0.18956567  0.81929281  0.66938234     0.02800
C1112       C  0.20556771  0.86059499  0.66725682     0.02800
C1113       C  0.18218461  0.87652156  0.65610128     0.02800
C1114       C  0.14217661  0.85060525  0.64696875     0.02800
C1115       C  0.12635210  0.80935120  0.64930826     0.02800
C1116       C  0.15089753  0.79389449  0.65646065     0.02800
C1117       C  0.10860410  0.88898863  0.65412534    -0.15900
C1118       C  0.11562406  0.86465884  0.63417188    -0.31100
H1119       H  0.12725876  0.90427667  0.67730530     0.13100
H1120       H  0.09497315  0.84728648  0.61271366     0.13700
C1121       C  0.22237339  0.77903304  0.67423598    -0.15900
C1122       C  0.21358906  0.80511458  0.68839134    -0.31100
H1123       H  0.20555631  0.76014321  0.65184161     0.13100
H1124       H  0.23228545  0.82419876  0.71020724     0.13700
C1125       C  0.27120881  0.89774914  0.64166927    -0.15900
C1126       C  0.24847032  0.88735980  0.67112693    -0.31100
H1127       H  0.25844311  0.88337040  0.61591344     0.13100
H1128       H  0.25961772  0.90369512  0.69637396     0.13700
C1129       C  0.08331922  0.78221255  0.65163180    -0.15900
C1130       C  0.06630033  0.77406225  0.68434541    -0.31100
H1131       H  0.06759033  0.76432750  0.62811322     0.13100
H1132       H  0.08383815  0.78981008  0.70802255     0.13700
C1133       C  0.13979509  0.75473720  0.64128568    -0.15900
C1134       C  0.11664656  0.72082848  0.65855427    -0.31100
H1135       H  0.15547701  0.75477139  0.61720736     0.13100
H1136       H  0.10213965  0.72120806  0.68332007     0.13700
C1137       C  0.19874734  0.92005262  0.65596819    -0.15900
C1138       C  0.21069018  0.94090652  0.68705118    -0.31100
H1139       H  0.19319455  0.93296479  0.63232137     0.13100
H1140       H  0.21135601  0.92630654  0.71175610     0.13700
C1141       C  0.46745238  0.55050669  0.02370862    -0.15900
C1142       C  0.45737904  0.55860959  0.99138613    -0.31100
H1143       H  0.97275558  0.57001619  0.04322515     0.13100
H1144       H  0.45876690  0.54360528  0.96714845     0.13700
C1145       C  0.04380998  0.93787144  0.02098338    -0.15900
C1146       C  0.03012655  0.94995638  0.99358010    -0.31100
H1147       H  0.54512499  0.95023902  0.04701212     0.13100
H1148       H  0.02339112  0.93471026  0.96761627     0.13700
C1149       C  0.06039924  0.61147826  0.02164455    -0.15900
C1150       C  0.05109826  0.57890129  0.04075291    -0.31100
H1151       H  0.04308444  0.60914714  0.99785494     0.13100
H1152       H  0.07057903  0.58057626  0.06246252     0.13700
C1153       C  0.43848969  0.88931471  0.99108352    -0.15900
C1154       C  0.44658948  0.92485410  0.97888722    -0.31100
H1155       H  0.45431475  0.88764791  0.01448446     0.13100
H1156       H  0.42926992  0.92644588  0.95680800     0.13700
C1157       C  0.38523038  0.95073799  0.00570391    -0.15900
C1158       C  0.41762029  0.96794360  0.02637699    -0.31100
H1159       H  0.38681472  0.94324251  0.97783432     0.13100
H1160       H  0.41402147  0.47279358  0.05617139     0.13700
C1161       C  0.08323899  0.53200372  0.01516708    -0.15900
C1162       C  0.10234051  0.53918095  0.98363989    -0.31100
H1163       H  0.09753462  0.53240595  0.04046447     0.13100
H1164       H  0.08658186  0.03837472  0.95783028     0.13700
C1165       C  0.31000465  0.56697825  0.31371463    -0.15900
C1166       C  0.32267164  0.59320012  0.28676800    -0.31100
H1167       H  0.30697860  0.57595073  0.34074920     0.13100
H1168       H  0.32665640  0.58525203  0.25963809     0.13700
C1169       C  0.35991510  0.76663601  0.34852240    -0.15900
C1170       C  0.35621116  0.75235803  0.31474369    -0.31100
H1171       H  0.35394682  0.74703206  0.37139020     0.13100
H1172       H  0.35896119  0.77046719  0.29150554     0.13700
C1173       C  0.25944788  0.60783795  0.29043851    -0.15900
C1174       C  0.24664795  0.58651157  0.32085651    -0.31100
H1175       H  0.24673196  0.59426720  0.26445111     0.13100
H1176       H  0.26180312  0.60012515  0.34614900     0.13700
C1177       C  0.42652013  0.75342880  0.35135239    -0.15900
C1178       C  0.41731036  0.73368042  0.31989842    -0.31100
H1179       H  0.41073956  0.73884615  0.37581803     0.13100
H1180       H  0.43416996  0.74861697  0.29595597     0.13700
C1181       C  0.26866441  0.70938985  0.31950113    -0.15900
C1182       C  0.27578171  0.68959208  0.29392718    -0.31100
H1183       H  0.28599522  0.71858916  0.34410031     0.13100
H1184       H  0.25555143  0.67633652  0.27122405     0.13700
C1185       C  0.39907489  0.65169276  0.31079093    -0.15900
C1186       C  0.40661902  0.64161381  0.34326989    -0.31100
H1187       H  0.41284070  0.64851247  0.28664627     0.13100
H1188       H  0.39362041  0.64566457  0.36752815     0.13700
O1189       O  0.64125151  0.16928444  0.35645459    -0.87800
C1190       C  0.61698732  0.25773222  0.36740450     0.88200
Mg1191     Mg  0.64575604  0.14511603  0.30530400     1.58100
O1192       O  0.54573956  0.15957540  0.39021500    -0.87500
O1193       O  0.61881088  0.15065828  0.41057263    -0.74900
C1194       C  0.48096219  0.10049944  0.21723606     0.93300
O1195       O  0.65987993  0.23739111  0.30094123    -0.74700
O1196       O  0.51582448  0.10917293  0.20864429    -0.82200
Mg1197     Mg  0.67487468  0.23342533  0.36087866     1.58000
C1198       C  0.93663389  0.12925319  0.34642359     0.93200
O1199       O  0.69693191  0.23751222  0.41891057    -0.80400
H1200       H  0.52520528  0.11064833  0.42036377    -0.05800
C1201       C  0.53309935  0.18983106  0.28592295     0.88100
O1202       O  0.58513617  0.08881899  0.31262665    -0.74900
O1203       O  0.62383493  0.23235212  0.37937550    -0.87700
O1204       O  0.96086986  0.14024463  0.37241839    -0.80500
C1205       C  0.53921100  0.22980897  0.44502157     0.93300
C1206       C  0.68808738  0.23729448  0.45189801     0.93200
Mg1207     Mg  0.49171536  0.10486426  0.30815948     1.58000
O1208       O  0.97179356  0.10053089  0.25009785    -0.80400
O1209       O  0.50525470  0.09975451  0.36845425    -0.74700
O1210       O  0.57119759  0.22946335  0.44894909    -0.80500
O1211       O  0.72754124  0.23058419  0.34719576    -0.82200
O1212       O  0.59809195  0.10584193  0.22028440    -0.80600
C1213       C  0.52550936  0.12309664  0.39425234     0.87600
O1214       O  0.54309611  0.10431240  0.29053977    -0.87700
O1215       O  0.52691961  0.16876975  0.31259932    -0.87800
O1216       O  0.54952394  0.18580273  0.25824285    -0.74900
Mg1217     Mg  0.59650268  0.19267963  0.42515031     1.58000
O1218       O  0.51714599  0.21584899  0.41738337    -0.82200
H1219       H  0.64484735  0.12608937  0.38175910    -0.06000
O1220       O  0.62215124  0.17708473  0.27870456    -0.87500
H1221       H  0.64029969  0.22596348  0.24897578    -0.05800
H1222       H  0.52623593  0.04981959  0.30873924    -0.06000
C1223       C  0.64076237  0.21369046  0.27497549     0.87600
C1224       C  0.63573183  0.14791416  0.38274054     0.88200
C1225       C  0.55031724  0.07961270  0.30365551     0.88200
H1226       H  0.52467792  0.21220241  0.28625644    -0.05900
O1227       O  0.58249648  0.24889486  0.35782177    -0.75000
Mg1228     Mg  0.57169520  0.14310931  0.24423274     1.58000
H1229       H  0.64120780  0.28773772  0.36351614    -0.06000
C1230       C  0.73167507  0.21138888  0.32194273     0.93200
O1231       O  0.65180844  0.12035310  0.25261027    -0.82200
C1232       C  0.63032043  0.10578898  0.22467634     0.93300
O1233       O  0.65278780  0.22630466  0.46130383    -0.82200
Mg1234     Mg  0.52235512  0.19234519  0.36428132     1.58200
O1235       O  0.70707354  0.19692984  0.29617794    -0.80500
O1236       O  0.93900723  0.10930908  0.32063813    -0.82200
C1237       C  0.64613533  0.09246342  0.19515959     0.02800
C1238       C  0.64174710  0.05443440  0.19412897     0.02800
C1239       C  0.66343736  0.04640325  0.16851773    -0.17700
C1240       C  0.68941452  0.07546059  0.14383469     0.02800
C1241       C  0.69225744  0.11325722  0.14421617     0.02800
C1242       C  0.67086517  0.12101322  0.17009043    -0.17700
H1243       H  0.67363359  0.15011209  0.17079649     0.04800
H1244       H  0.66052706  0.01726712  0.16816733     0.04800
C1245       C  0.91586013  0.05010236  0.18791935     0.02800
C1246       C  0.95060487  0.08805612  0.18958765     0.02800
C1247       C  0.95388059  0.11869134  0.16707762    -0.17700
C1248       C  0.92351430  0.11259071  0.14281712     0.02800
C1249       C  0.88905730  0.07440945  0.14060713     0.02800
C1250       C  0.88612482  0.04403648  0.16310325    -0.17700
H1251       H  0.85937789  0.01505888  0.16197703     0.04800
H1252       H  0.98050468  0.14770794  0.16843554     0.04800
O1253       O  0.53547713  0.35952704  0.31354475    -0.87800
C1254       C  0.53981966  0.46497729  0.30459390     0.88200
Mg1255     Mg  0.53387813  0.33108913  0.36454357     1.58100
O1256       O  0.61889248  0.45158983  0.27945122    -0.87500
O1257       O  0.55224423  0.36499422  0.25747804    -0.74900
C1258       C  0.69260017  0.46066972  0.44892241     0.93300
O1259       O  0.50837310  0.39977390  0.37060160    -0.74700
O1260       O  0.65951726  0.43103736  0.45816735    -0.82200
Mg1261     Mg  0.49297345  0.37832616  0.31084167     1.58000
C1262       C  0.72184004  0.04075017  0.31978935     0.93200
O1263       O  0.97000476  0.35895450  0.25293602    -0.80400
H1264       H  0.64436416  0.43014030  0.24715343    -0.05800
C1265       C  0.63042306  0.49150454  0.38580431     0.88100
O1266       O  0.59576842  0.34112353  0.35523186    -0.74900
O1267       O  0.53738397  0.43475208  0.29140266    -0.87700
O1268       O  0.69790056  0.02279627  0.29443798    -0.80500
C1269       C  0.62258198  0.02598443  0.22389961     0.93300
C1270       C  0.47797654  0.37314637  0.22046775     0.93200
Mg1271     Mg  0.67777484  0.45856562  0.35930240     1.58000
O1272       O  0.69914722  0.47486028  0.41722534    -0.80400
O1273       O  0.66520166  0.44061627  0.29876048    -0.74700
O1274       O  0.59210016  0.49162673  0.21936063    -0.80500
O1275       O  0.94844265  0.31521950  0.32599751    -0.82200
O1276       O  0.57860473  0.34333478  0.45070048    -0.80600
C1277       C  0.64273061  0.44047280  0.27384857     0.87600
O1278       O  0.63253282  0.40096123  0.37723281    -0.87700
O1279       O  0.63464716  0.47719488  0.35779645    -0.87800
O1280       O  0.61975732  0.47115527  0.41435716    -0.74900
Mg1281     Mg  0.56839808  0.42904323  0.24493770     1.58000
O1282       O  0.64043240  0.03561769  0.25397575    -0.82200
H1283       H  0.53475243  0.31474381  0.28650263    -0.06000
O1284       O  0.55262413  0.38627782  0.39145120    -0.87500
H1285       H  0.53064233  0.41288085  0.42170869    -0.05800
H1286       H  0.65549171  0.36894138  0.35865440    -0.06000
C1287       C  0.53073806  0.40009770  0.39580436     0.87600
C1288       C  0.54056337  0.34493535  0.28614081     0.88200
C1289       C  0.62927031  0.37035776  0.36395458     0.88200
H1290       H  0.63639095  0.52175263  0.38613497    -0.05900
O1291       O  0.57266917  0.49392952  0.31496943    -0.75000
Mg1292     Mg  0.60291395  0.40652254  0.42535977     1.58000
H1293       H  0.51324262  0.46602335  0.30886015    -0.06000
C1294       C  0.94918460  0.29788084  0.35452315     0.93200
O1295       O  0.52880194  0.30020919  0.41598773    -0.82200
C1296       C  0.54755665  0.30941908  0.44554335     0.93300
O1297       O  0.51157256  0.40237226  0.21150480    -0.82200
Mg1298     Mg  0.63612587  0.00567410  0.30585711     1.58200
O1299       O  0.97350901  0.31734977  0.37893563    -0.80500
O1300       O  0.72343467  0.02125569  0.34621482    -0.82200
O1301       O  0.81606296  0.35361873  0.34277718    -0.87800
C1302       C  0.85737133  0.43914150  0.41873748     0.88200
Mg1303     Mg  0.85055851  0.35305057  0.29704335     1.58100
O1304       O  0.77976039  0.42363249  0.35983075    -0.87500
O1305       O  0.75737594  0.33479908  0.36293118    -0.74900
C1306       C  0.90441215  0.01855918  0.21565105     0.93300
O1307       O  0.90425835  0.41175932  0.36446123    -0.74700
O1308       O  0.91767657  0.49861146  0.21597626    -0.82200
Mg1309     Mg  0.84721978  0.36272438  0.39303450     1.58000
C1310       C  0.80409617  0.02726731  0.30627128     0.93200
O1311       O  0.79540643  0.31553976  0.42533618    -0.80400
H1312       H  0.72644292  0.38836545  0.33791172    -0.05800
C1313       C  0.89206682  0.50763751  0.32143509     0.88100
O1314       O  0.81230006  0.36255195  0.25660041    -0.74900
O1315       O  0.83148584  0.40644409  0.40698594    -0.87700
O1316       O  0.78833739  0.00239406  0.33141168    -0.80500
C1317       C  0.77275816  0.46646335  0.44382006     0.93300
C1318       C  0.76959838  0.31215103  0.44786628     0.93200
Mg1319     Mg  0.82440127  0.46901154  0.27079005     1.58000
O1320       O  0.87671088  0.01362346  0.23637053    -0.80400
O1321       O  0.76809678  0.42295056  0.30135719    -0.74700
O1322       O  0.76712948  0.43098300  0.44628758    -0.80500
O1323       O  0.85633698  0.31006588  0.37855863    -0.82200
O1324       O  0.90467225  0.40571628  0.22046596    -0.80600
C1325       C  0.75688131  0.41096189  0.33352457     0.87600
O1326       O  0.84143262  0.42713250  0.25924923    -0.87700
O1327       O  0.85637475  0.48333390  0.32143005    -0.87800
O1328       O  0.91523424  0.50258077  0.30146982    -0.74900
Mg1329     Mg  0.76801724  0.38373534  0.40435256     1.58000
O1330       O  0.79027018  0.48844439  0.41688929    -0.82200
H1331       H  0.76819036  0.30478568  0.32402845    -0.06000
O1332       O  0.89259259  0.41430341  0.30638606    -0.87500
H1333       H  0.94533142  0.45021968  0.32921747    -0.05800
H1334       H  0.79732132  0.39488904  0.22444311    -0.06000
C1335       C  0.91524714  0.42643303  0.33291490     0.87600
C1336       C  0.78022249  0.32998317  0.34224239     0.88200
C1337       C  0.81666030  0.39516129  0.24540079     0.88200
H1338       H  0.90556328  0.03156492  0.33861945    -0.05900
O1339       O  0.86098299  0.47133501  0.40701677    -0.75000
Mg1340     Mg  0.90523893  0.45286495  0.26153136     1.58000
H1341       H  0.87824993  0.44040715  0.43853339    -0.06000
C1342       C  0.87102335  0.31122287  0.34803447     0.93200
O1343       O  0.88468200  0.34946008  0.25087922    -0.82200
C1344       C  0.89995964  0.37080949  0.22330047     0.93300
O1345       O  0.75729740  0.33694041  0.44906117    -0.82200
Mg1346     Mg  0.82361260  0.48490257  0.36842561     1.58200
O1347       O  0.88945346  0.34398492  0.33261587    -0.80500
O1348       O  0.81578824  0.01862900  0.27800551    -0.82200
C1349       C  0.91024924  0.35250436  0.19354007     0.02800
C1350       C  0.94600657  0.35200120  0.19328489     0.02800
C1351       C  0.95187937  0.33003460  0.16676923    -0.17700
C1352       C  0.92317564  0.30848973  0.14037149     0.02800
C1353       C  0.88737469  0.30846951  0.14061259     0.02800
C1354       C  0.88118465  0.33032256  0.16732108    -0.17700
H1355       H  0.85378611  0.33059001  0.16735264     0.04800
H1356       H  0.97960232  0.33038407  0.16621290     0.04800
O1357       O  0.67977557  0.47843345  0.99067504    -0.87800
C1358       C  0.76551955  0.01449718  0.91626751     0.88200
Mg1359     Mg  0.68130061  0.51057179  0.03908507     1.58100
O1360       O  0.75021400  0.44121646  0.97219669    -0.87500
O1361       O  0.66241153  0.41921692  0.97058746    -0.74900
C1362       C  0.85648413  0.06243052  0.11371399     0.93300
O1363       O  0.73945873  0.06465428  0.97066300    -0.74700
O1364       O  0.83366592  0.07699055  0.11422004    -0.82200
Mg1365     Mg  0.69217688  0.51116737  0.94137750     1.58000
C1366       C  0.85151111  0.45381952  0.01419780     0.93200
O1367       O  0.64481063  0.45966332  0.90678822    -0.80400
H1368       H  0.71598795  0.38721255  0.99330791    -0.05800
C1369       C  0.83504820  0.04874105  0.00916830     0.88100
O1370       O  0.69688066  0.47220661  0.07407105    -0.74900
O1371       O  0.73384212  0.49373810  0.92789422    -0.87700
O1372       O  0.82351886  0.44145889  0.99194757    -0.80500
C1373       C  0.78866562  0.43384284  0.88660492     0.93300
C1374       C  0.63934035  0.43147978  0.88556770     0.93200
Mg1375     Mg  0.80114644  0.98148033  0.06038785     1.58000
O1376       O  0.84976435  0.03342963  0.09306898    -0.80400
O1377       O  0.75411638  0.42822510  0.02947655    -0.74700
O1378       O  0.75389323  0.42898686  0.88508818    -0.80500
O1379       O  0.64533017  0.02258763  0.95274006    -0.82200
O1380       O  0.74081763  0.06811532  0.11490182    -0.80600
C1381       C  0.73919560  0.41765887  0.99783814     0.87600
O1382       O  0.76047026  0.00064021  0.07407244    -0.87700
O1383       O  0.81194536  0.01254182  0.01061561    -0.87800
O1384       O  0.83020161  0.07272950  0.02857601    -0.74900
Mg1385     Mg  0.70967807  0.42944699  0.92873264     1.58000
O1386       O  0.81132286  0.45027780  0.91338730    -0.82200
H1387       H  0.63223643  0.42970716  0.00909139    -0.06000
O1388       O  0.74198125  0.05288284  0.02845097    -0.87500
H1389       H  0.77558935  0.10676386  0.00699190    -0.05800
H1390       H  0.72852117  0.45430555  0.10356245    -0.06000
C1391       C  0.75306344  0.07602764  0.00254264     0.87600
C1392       C  0.65696536  0.44215762  0.99090260     0.88200
C1393       C  0.72918325  0.47592612  0.08498071     0.88200
H1394       H  0.85960083  0.06022221  0.99076477    -0.05900
O1395       O  0.79759279  0.01726906  0.92667527    -0.75000
Mg1396     Mg  0.78439223  0.06493887  0.07127495     1.58000
H1397       H  0.76639369  0.03545906  0.89676495    -0.06000
C1398       C  0.63862768  0.03696016  0.98060822     0.93200
O1399       O  0.68189381  0.04374670  0.08810880    -0.82200
C1400       C  0.70553070  0.06230223  0.11397265     0.93300
O1401       O  0.66273746  0.41780933  0.88503462    -0.82200
Mg1402     Mg  0.80917302  0.97756846  0.96396875     1.58200
O1403       O  0.66007319  0.04585693  0.00870844    -0.80500
O1404       O  0.85098055  0.47130808  0.04296186    -0.82200
O1405       O  0.80080804  0.31619354  0.98874619    -0.87800
C1406       C  0.74988259  0.22785730  0.91728814     0.88200
Mg1407     Mg  0.83372436  0.31373325  0.03467467     1.58100
O1408       O  0.69101436  0.24670838  0.97567092    -0.87500
O1409       O  0.75978604  0.33484665  0.97155733    -0.74900
C1410       C  0.71133284  0.14392118  0.11583612     0.93300
O1411       O  0.82632645  0.25494256  0.96746468    -0.74700
O1412       O  0.74880809  0.16656932  0.11451562    -0.82200
Mg1413     Mg  0.81895766  0.30399641  0.93868383     1.58000
C1414       C  0.60036873  0.14821331  0.02516136     0.93200
O1415       O  0.81460473  0.35195837  0.90542193    -0.80400
H1416       H  0.67462512  0.28328324  0.99672546    -0.05800
C1417       C  0.71196072  0.15855157  0.01184331     0.88100
O1418       O  0.78410742  0.30368696  0.07306007    -0.74900
O1419       O  0.75828539  0.26162311  0.92715810    -0.87700
O1420       O  0.61422216  0.17136747  0.99854489    -0.80500
C1421       C  0.64210015  0.20471815  0.89087758     0.93300
C1422       C  0.79072533  0.35659817  0.88542158     0.93200
Mg1423     Mg  0.68514824  0.19821385  0.06301282     1.58000
O1424       O  0.68821173  0.15016096  0.09641443    -0.80400
O1425       O  0.67810095  0.24668923  0.03352647    -0.74700
O1426       O  0.67272108  0.23962922  0.88863956    -0.80500
O1427       O  0.88250541  0.35270327  0.95187652    -0.82200
O1428       O  0.82855951  0.25781930  0.11165881    -0.80600
C1429       C  0.68086288  0.25972413  0.00147038     0.87600
O1430       O  0.74572236  0.23885373  0.07332394    -0.87700
O1431       O  0.70109657  0.18307829  0.01325082    -0.87800
O1432       O  0.74179850  0.16376108  0.02961899    -0.74900
Mg1433     Mg  0.71929061  0.28599194  0.93090701     1.58000
O1434       O  0.63506132  0.18322927  0.91846809    -0.82200
H1435       H  0.80394214  0.36558834  0.00799799    -0.06000
O1436       O  0.81088084  0.25205214  0.02497429    -0.87500
H1437       H  0.82841524  0.21664758  0.00326788    -0.05800
H1438       H  0.73611152  0.27452234  0.10511601    -0.06000
C1439       C  0.82206876  0.24020408  0.99903519     0.87600
C1440       C  0.78913161  0.34006290  0.99025587     0.88200
C1441       C  0.75472451  0.27213469  0.08512508     0.88200
H1442       H  0.69613485  0.13252318  0.99478240    -0.05900
O1443       O  0.72049240  0.19665372  0.92995360    -0.75000
Mg1444     Mg  0.78284743  0.21256075  0.06960863     1.58000
H1445       H  0.76899665  0.22477712  0.89837291    -0.06000
C1446       C  0.90141630  0.35298221  0.97984617     0.93200
O1447       O  0.86814564  0.31420612  0.08252862    -0.82200
C1448       C  0.85968705  0.29221481  0.10999213     0.93300
O1449       O  0.75342365  0.33244042  0.88628091    -0.82200
Mg1450     Mg  0.66907942  0.18497496  0.96693662     1.58200
O1451       O  0.88602555  0.32419995  0.00134400    -0.80500
O1452       O  0.62160385  0.15218380  0.05249084    -0.82200
O1453       O  0.99776962  0.30521522  0.97922767    -0.87800
C1454       C  0.58687068  0.28261777  0.97068971     0.88200
Mg1455     Mg  0.97442024  0.30989032  0.03031503     1.58100
O1456       O  0.98976449  0.20656446  0.94419118    -0.87500
O1457       O  0.97960193  0.27953826  0.92536426    -0.74900
C1458       C  0.93198450  0.14386702  0.11598741     0.93300
O1459       O  0.56714684  0.32722961  0.03514997    -0.74700
O1460       O  0.94081057  0.17886252  0.12577917    -0.82200
Mg1461     Mg  0.56159280  0.34105761  0.97527134     1.58000
C1462       C  0.95386887  0.09453768  0.98706246     0.93200
O1463       O  0.56241619  0.36084885  0.91759002    -0.80400
H1464       H  0.94152106  0.18690950  0.91329029    -0.05800
C1465       C  0.51974787  0.19666363  0.04807360     0.88100
O1466       O  0.91885452  0.24893499  0.02173032    -0.74900
O1467       O  0.56205219  0.28923529  0.95712344    -0.87700
O1468       O  0.47435933  0.12142673  0.96096477    -0.80500
C1469       C  0.56504475  0.20318336  0.89143655     0.93300
C1470       C  0.56331814  0.35161486  0.88486525     0.93200
Mg1471     Mg  0.93448345  0.15538244  0.02547464     1.58000
O1472       O  0.93207284  0.13494676  0.08306034    -0.80400
O1473       O  0.92990572  0.16865828  0.96538294    -0.74700
O1474       O  0.56320861  0.23473361  0.88672957    -0.80500
O1475       O  0.55875522  0.39529400  0.99032348    -0.82200
O1476       O  0.93621959  0.26078241  0.11415571    -0.80600
C1477       C  0.95352858  0.18727819  0.93969514     0.87600
O1478       O  0.93517265  0.20728088  0.04354288    -0.87700
O1479       O  0.49877366  0.19001122  0.02114372    -0.87800
O1480       O  0.51649857  0.21434928  0.07535689    -0.74900
Mg1481     Mg  0.52449089  0.25998402  0.91018031     1.58000
O1482       O  0.55103439  0.18150978  0.91917931    -0.82200
H1483       H  0.95347693  0.30515809  0.95255061    -0.06000
O1484       O  0.50750169  0.28786989  0.05613523    -0.87500
H1485       H  0.55588975  0.30732242  0.08682559    -0.05800
H1486       H  0.88069987  0.18952128  0.02548980    -0.06000
C1487       C  0.54373046  0.30743369  0.06062228     0.87600
C1488       C  0.97615415  0.29733513  0.95253250     0.88200
C1489       C  0.91019818  0.21408163  0.03065955     0.88200
H1490       H  0.54177500  0.18794754  0.04811611    -0.05900
O1491       O  0.57837020  0.24777981  0.97955837    -0.75000
Mg1492     Mg  0.97349591  0.23524102  0.09052805     1.58000
H1493       H  0.61613773  0.30732453  0.97642329    -0.06000
C1494       C  0.54427679  0.40123097  0.01839678     0.93200
O1495       O  0.94928478  0.31475546  0.08264862    -0.82200
C1496       C  0.93531628  0.29277988  0.11014043     0.93300
O1497       O  0.55634825  0.31702979  0.87557616    -0.82200
Mg1498     Mg  0.52397845  0.18577934  0.97100339     1.58200
O1499       O  0.02560412  0.37272108  0.04199039    -0.80500
O1500       O  0.93655940  0.10156576  0.01202685    -0.82200
O1501       O  0.64892772  0.01528182  0.67812622    -0.87800
C1502       C  0.68402819  0.10237359  0.75310240     0.88200
Mg1503     Mg  0.68391431  0.01796993  0.63195601     1.58100
O1504       O  0.60692070  0.08356460  0.69358948    -0.87500
O1505       O  0.58887555  0.99698287  0.69456059    -0.74900
C1506       C  0.73208688  0.19094981  0.55607781     0.93300
O1507       O  0.73607895  0.07750742  0.70157239    -0.74700
O1508       O  0.74755999  0.16899758  0.55733953    -0.82200
Mg1509     Mg  0.67913471  0.02878883  0.72916728     1.58000
C1510       C  0.61755663  0.18339456  0.64860466     0.93200
O1511       O  0.62431002  0.47960995  0.76028708    -0.80400
H1512       H  0.55428492  0.04702035  0.67092078    -0.05800
C1513       C  0.71738299  0.17150946  0.66134888     0.88100
O1514       O  0.64576468  0.03073999  0.59389768    -0.74900
O1515       O  0.65966548  0.06958068  0.74021508    -0.87700
O1516       O  0.60493092  0.15605286  0.67157091    -0.80500
C1517       C  0.59851675  0.12231596  0.77920606     0.93300
C1518       C  0.59566944  0.47406081  0.78023331     0.93200
Mg1519     Mg  0.65162920  0.13515895  0.60791002     1.58000
O1520       O  0.70280780  0.18415409  0.57568442    -0.80400
O1521       O  0.59527923  0.08516890  0.63551747    -0.74700
O1522       O  0.59509419  0.08787264  0.78048809    -0.80500
O1523       O  0.69259226  0.48136944  0.71732094    -0.82200
O1524       O  0.73962811  0.07841133  0.55760665    -0.80600
C1525       C  0.58426618  0.07103924  0.66713955     0.87600
O1526       O  0.67218928  0.09523985  0.59610062    -0.87700
O1527       O  0.68168502  0.14772704  0.65856047    -0.87800
O1528       O  0.74215258  0.16731652  0.64302126    -0.74900
Mg1529     Mg  0.59594310  0.04353833  0.73692118     1.58000
O1530       O  0.61238408  0.14463324  0.75199200    -0.82200
H1531       H  0.60193902  0.96855379  0.65592440    -0.06000
O1532       O  0.72478927  0.07950898  0.64354302    -0.87500
H1533       H  0.77781006  0.11449496  0.66612549    -0.05800
H1534       H  0.62733178  0.06093332  0.56281707    -0.06000
C1535       C  0.74748675  0.09128126  0.66993540     0.87600
C1536       C  0.61300335  0.99242069  0.67548114     0.88200
C1537       C  0.64805945  0.06257969  0.58298054     0.88200
H1538       H  0.72769346  0.19590043  0.68031428    -0.05900
O1539       O  0.68609751  0.13421520  0.74234578    -0.75000
Mg1540     Mg  0.73605351  0.12127627  0.60075849     1.58000
H1541       H  0.70503138  0.10411286  0.77299537    -0.06000
C1542       C  0.70846865  0.47626531  0.68978308     0.93200
O1543       O  0.71916265  0.01968613  0.58386623    -0.82200
C1544       C  0.73566173  0.04370722  0.55802749     0.93300
O1545       O  0.58376892  0.99666486  0.78057914    -0.82200
Mg1546     Mg  0.64644188  0.14484232  0.70425361     1.58200
O1547       O  0.71912217  0.49977096  0.66322049    -0.80500
O1548       O  0.63514266  0.18172067  0.62064162    -0.82200
C1549       C  0.61323320  0.18683172  0.86098955     0.02800
C1550       C  0.57729957  0.18676726  0.86147385     0.02800
C1551       C  0.54795542  0.16370463  0.83598657    -0.17700
C1552       C  0.55260732  0.13980364  0.81045884     0.02800
C1553       C  0.58814877  0.13908020  0.81013985     0.02800
C1554       C  0.61812765  0.16285832  0.83535727    -0.17700
H1555       H  0.64562963  0.16281834  0.83494655     0.04800
H1556       H  0.52043187  0.16377524  0.83643259     0.04800
C1557       C  0.57181630  0.38241706  0.85756058     0.02800
C1558       C  0.60774397  0.41933229  0.85796140     0.02800
C1559       C  0.61307944  0.44855310  0.83305788    -0.17700
C1560       C  0.58355646  0.44300738  0.80840049     0.02800
C1561       C  0.54634321  0.40742251  0.80979660     0.02800
C1562       C  0.54124618  0.37726758  0.83396550    -0.17700
H1563       H  0.51329107  0.34944937  0.83429638     0.04800
H1564       H  0.64108172  0.47639930  0.83279842     0.04800
O1565       O  0.98505154  0.13244998  0.67987037    -0.87800
C1566       C  0.89602569  0.08422647  0.75132921     0.88200
Mg1567     Mg  0.98604098  0.16617612  0.63338319     1.58100
O1568       O  0.90891129  0.02028147  0.69338375    -0.87500
O1569       O  0.99831415  0.08721396  0.69731162    -0.74900
C1570       C  0.81523364  0.04954895  0.55237690     0.93300
O1571       O  0.92654431  0.16229118  0.70034639    -0.74700
O1572       O  0.83992592  0.08687226  0.55337567    -0.82200
Mg1573     Mg  0.97168036  0.15057948  0.72969318     1.58000
C1574       C  0.80821917  0.43691840  0.64113246     0.93200
O1575       O  0.51896661  0.14598466  0.76121041    -0.80400
H1576       H  0.94172154  0.99917199  0.67320699    -0.05800
C1577       C  0.82841503  0.05112326  0.65660392     0.88100
O1578       O  0.97142718  0.11371000  0.59581716    -0.74900
O1579       O  0.92796798  0.09027107  0.73973234    -0.87700
O1580       O  0.82797653  0.44909577  0.67021510    -0.80500
C1581       C  0.86700939  0.97391404  0.77724950     0.93300
C1582       C  0.52166527  0.12167263  0.78212588     0.93200
Mg1583     Mg  0.86338931  0.01836157  0.60601031     1.58000
O1584       O  0.81843157  0.02509141  0.57261728    -0.80400
O1585       O  0.90817278  0.00638392  0.63565270    -0.74700
O1586       O  0.90266835  0.00316192  0.77918638    -0.80500
O1587       O  0.52382654  0.21562850  0.71784888    -0.82200
O1588       O  0.93102277  0.16448911  0.55629857    -0.80600
C1589       C  0.92026602  0.00802642  0.66794762     0.87600
O1590       O  0.90705864  0.07866671  0.59629071    -0.87700
O1591       O  0.84987498  0.03665950  0.65557840    -0.87800
O1592       O  0.83642043  0.08181815  0.63853766    -0.74900
Mg1593     Mg  0.94929064  0.04866613  0.73765387     1.58000
O1594       O  0.84688542  0.47167839  0.74953628    -0.82200
H1595       H  0.03197194  0.13083752  0.66177753    -0.06000
O1596       O  0.92566246  0.14841925  0.64259358    -0.87500
H1597       H  0.89272566  0.16929895  0.66293983    -0.05800
H1598       H  0.93921268  0.06451799  0.56473251    -0.06000
C1599       C  0.91429866  0.16057862  0.66809693     0.87600
C1600       C  0.00632507  0.11775084  0.67892444     0.88200
C1601       C  0.93894416  0.08494785  0.58433413     0.88200
H1602       H  0.80268905  0.03776336  0.67365767    -0.05900
O1603       O  0.86353293  0.05585575  0.73940868    -0.75000
Mg1604     Mg  0.88552272  0.12014278  0.59839337     1.58000
H1605       H  0.89574317  0.10465362  0.77091930    -0.06000
C1606       C  0.52878748  0.23591797  0.68971706     0.93200
O1607       O  0.98863173  0.20131246  0.58483000    -0.82200
C1608       C  0.96609557  0.19454184  0.55786929     0.93300
O1609       O  0.99603410  0.08280386  0.78278109    -0.82200
Mg1610     Mg  0.84843317  0.00320993  0.70202471     1.58200
O1611       O  0.50300888  0.22317164  0.66497034    -0.80500
O1612       O  0.81651021  0.45883787  0.61368655    -0.82200
O1613       O  0.97604148  0.33465589  0.68825594    -0.87800
C1614       C  0.94906987  0.42200054  0.69706317     0.88200
Mg1615     Mg  0.98267603  0.31088849  0.63786507     1.58100
O1616       O  0.87517765  0.32573965  0.72316029    -0.87500
O1617       O  0.94850063  0.31635882  0.74119640    -0.74900
C1618       C  0.81524418  0.26430359  0.55019742     0.93300
O1619       O  0.99508495  0.40337391  0.63207975    -0.74700
O1620       O  0.85025938  0.27418971  0.54033991    -0.82200
Mg1621     Mg  0.50518155  0.39763216  0.69226315     1.58000
C1622       C  0.76336597  0.28392352  0.67777590     0.93200
O1623       O  0.52449262  0.39869678  0.74981924    -0.80400
H1624       H  0.85796360  0.27744523  0.75339468    -0.05800
C1625       C  0.86702018  0.35412411  0.61706176     0.88100
O1626       O  0.92225872  0.25463344  0.64398767    -0.74900
O1627       O  0.95526045  0.39640975  0.70951161    -0.87700
O1628       O  0.78808584  0.31015909  0.69963976    -0.80500
C1629       C  0.86948825  0.39952933  0.77500873     0.93300
C1630       C  0.01801917  0.39967968  0.78249011     0.93200
Mg1631     Mg  0.82855588  0.26874110  0.64080506     1.58000
O1632       O  0.80702111  0.26455821  0.58321826    -0.80400
O1633       O  0.84207373  0.26511946  0.70066569    -0.74700
O1634       O  0.90079305  0.39763437  0.77996664    -0.80500
O1635       O  0.56047564  0.39861473  0.67884731    -0.82200
O1636       O  0.93606806  0.27224574  0.55226413    -0.80600
C1637       C  0.85804243  0.28921696  0.72699752     0.87600
O1638       O  0.88119952  0.27160823  0.62287617    -0.87700
O1639       O  0.85915920  0.33300523  0.64402968    -0.87800
O1640       O  0.88523993  0.35053125  0.59052902    -0.74900
Mg1641     Mg  0.92680400  0.35927373  0.75634566     1.58000
O1642       O  0.84819438  0.38570336  0.74666722    -0.82200
H1643       H  0.97442276  0.28969953  0.71541439    -0.06000
O1644       O  0.95972605  0.34304189  0.60940051    -0.87500
H1645       H  0.97805504  0.39178297  0.57946635    -0.05800
H1646       H  0.86343505  0.21613521  0.63870800    -0.06000
C1647       C  0.97777740  0.37961981  0.60571943     0.87600
C1648       C  0.96702376  0.31282159  0.71485232     0.88200
C1649       C  0.88779010  0.24605680  0.63474991     0.88200
H1650       H  0.85884464  0.37666921  0.61632167    -0.05900
O1651       O  0.91470544  0.41374613  0.68781015    -0.75000
Mg1652     Mg  0.90813496  0.30870709  0.57572131     1.58000
H1653       H  0.97367950  0.45168462  0.69266272    -0.06000
C1654       C  0.56907271  0.38299879  0.65333680     0.96800
O1655       O  0.98915754  0.28608870  0.58573973    -0.82200
C1656       C  0.96829221  0.27213966  0.55737142     0.93300
O1657       O  0.98352310  0.39177066  0.79176467    -0.82200
Mg1658     Mg  0.85340674  0.35858370  0.69404734     1.58200
O1659       O  0.54374037  0.36121178  0.62962184    -0.80500
O1660       O  0.77315780  0.26624999  0.65525112    -0.82200
C1661       C  0.80862799  0.38793379  0.85729986     0.02800
C1662       C  0.80563074  0.42266763  0.85634832     0.02800
C1663       C  0.82787893  0.45216176  0.83060135    -0.17700
C1664       C  0.85199709  0.44755240  0.80533855     0.02800
C1665       C  0.85334588  0.41203954  0.80521743     0.02800
C1666       C  0.83234365  0.38335967  0.83167718    -0.17700
H1667       H  0.83351955  0.35619953  0.83166756     0.04800
H1668       H  0.82670895  0.47930768  0.83042523     0.04800
C1669       C  0.52467365  0.24312015  0.47485121     0.02800
C1670       C  0.52900840  0.28109499  0.47558006     0.02800
C1671       C  0.50803772  0.28919531  0.50160849    -0.17700
C1672       C  0.98515152  0.25989153  0.52806970     0.02800
C1673       C  0.98264749  0.22251245  0.52748767     0.02800
C1674       C  0.50173997  0.21488687  0.50092674    -0.17700
H1675       H  0.49963626  0.18608501  0.50076092     0.04800
H1676       H  0.51020717  0.31800815  0.50174972     0.04800
C1677       C  0.71975258  0.24766574  0.47935669     0.02800
C1678       C  0.75842861  0.28074729  0.47553342     0.02800
C1679       C  0.78941534  0.28319710  0.49709256    -0.17700
C1680       C  0.78299126  0.25470578  0.52350998     0.02800
C1681       C  0.74385541  0.22243243  0.52829918     0.02800
C1682       C  0.71310720  0.21965260  0.50622022    -0.17700
H1683       H  0.68364064  0.19407774  0.50894726     0.04800
H1684       H  0.81889175  0.30869115  0.49415119     0.04800
C1685       C  0.76134434  0.48489975  0.47348852     0.02800
C1686       C  0.72380960  0.48171051  0.47592022     0.02800
C1687       C  0.71750988  0.00356617  0.50242989    -0.17700
C1688       C  0.74737287  0.02849116  0.52677435     0.02800
C1689       C  0.78475980  0.03182273  0.52398572     0.02800
C1690       C  0.79140758  0.01096163  0.49646477    -0.17700
H1691       H  0.82006200  0.01343819  0.49460932     0.04800
H1692       H  0.68861033  0.00044384  0.50474773     0.04800
C1693       C  0.54006789  0.01651964  0.01327951     0.02800
C1694       C  0.51560199  0.47758272  0.00339929     0.02800
C1695       C  0.97409594  0.46149965  0.99845770     0.02800
C1696       C  0.95789742  0.98365524  0.01325110     0.02800
C1697       C  0.48404117  0.02545246  0.02073496     0.02800
C1698       C  0.52464413  0.04031539  0.02418803     0.02800
C1699       C  0.86905000  0.16293284  0.30730683     0.02800
C1700       C  0.83241819  0.13440220  0.29284272     0.02800
C1701       C  0.80048553  0.14104866  0.29270079     0.02800
C1702       C  0.80557683  0.17704081  0.30606259     0.02800
C1703       C  0.84183621  0.20480575  0.32267111     0.02800
C1704       C  0.87408711  0.19844715  0.32175089     0.02800
C1705       C  0.69079170  0.31852637  0.66835542     0.02800
C1706       C  0.70613052  0.35977650  0.66643070     0.02800
C1707       C  0.68211077  0.37514761  0.65578317     0.02800
C1708       C  0.64213908  0.34875146  0.64689014     0.02800
C1709       C  0.62688712  0.30758597  0.64912438     0.02800
C1710       C  0.65199216  0.29266809  0.65584655     0.02800
C1711       C  0.60794478  0.38646955  0.65443873    -0.15900
C1712       C  0.61505021  0.36225375  0.63440853    -0.31100
H1713       H  0.62664241  0.40185527  0.67755980     0.13100
H1714       H  0.59434296  0.34474021  0.61303300     0.13700
C1715       C  0.72359028  0.27797681  0.67358478    -0.15900
C1716       C  0.71558719  0.30495506  0.68698438    -0.31100
H1717       H  0.70636599  0.25850758  0.65166965     0.13100
H1718       H  0.73484064  0.32455299  0.70827205     0.13700
C1719       C  0.77164974  0.39845560  0.64075383    -0.15900
C1720       C  0.74893884  0.38719247  0.67025544    -0.31100
H1721       H  0.75897626  0.38444694  0.61485260     0.13100
H1722       H  0.75994365  0.40309479  0.69571837     0.13700
C1723       C  0.58390681  0.27997588  0.65145498    -0.15900
C1724       C  0.56670567  0.27235149  0.68407105    -0.31100
H1725       H  0.56839153  0.26151699  0.62814483     0.13100
H1726       H  0.58405280  0.28860045  0.70765985     0.13700
C1727       C  0.64098008  0.25344284  0.64092010    -0.15900
C1728       C  0.61656911  0.21947963  0.65757876    -0.31100
H1729       H  0.65702728  0.25330898  0.61718235     0.13100
H1730       H  0.60161133  0.21992512  0.68200791     0.13700
C1731       C  0.69803581  0.41861112  0.65572654    -0.15900
C1732       C  0.70975453  0.43955037  0.68680056    -0.31100
H1733       H  0.69223955  0.43131209  0.63206312     0.13100
H1734       H  0.71071327  0.42512083  0.71151212     0.13700
C1735       C  0.96782870  0.05084824  0.02150308    -0.15900
C1736       C  0.95681021  0.05896263  0.98970451    -0.31100
H1737       H  0.47308639  0.07122600  0.04349755     0.13100
H1738       H  0.95781253  0.04428766  0.96508083     0.13700
C1739       C  0.54440315  0.43842162  0.02279683    -0.15900
C1740       C  0.53166912  0.45155108  0.99545831    -0.31100
H1741       H  0.04313095  0.44760479  0.04970963     0.13100
H1742       H  0.52535891  0.43693191  0.96921318     0.13700
C1743       C  0.56073940  0.11322537  0.02143456    -0.15900
C1744       C  0.55166237  0.08014445  0.03966593    -0.31100
H1745       H  0.54349755  0.11141188  0.99775629     0.13100
H1746       H  0.57108187  0.08147454  0.06127408     0.13700
C1747       C  0.93849834  0.38859677  0.99095078    -0.15900
C1748       C  0.94754629  0.42430906  0.97856965    -0.31100
H1749       H  0.95383593  0.38657646  0.01458450     0.13100
H1750       H  0.93051784  0.42630788  0.95642113     0.13700
C1751       C  0.88656660  0.45223728  0.00356118    -0.15900
C1752       C  0.91784791  0.46659144  0.02538240    -0.31100
H1753       H  0.88907361  0.44639537  0.97534948     0.13100
H1754       H  0.91475360  0.97436755  0.05468338     0.13700
C1755       C  0.58325254  0.03317577  0.01301624    -0.15900
C1756       C  0.60220930  0.03844408  0.98164135    -0.31100
H1757       H  0.59781432  0.03541286  0.03864313     0.13100
H1758       H  0.58606578  0.53723816  0.95989229     0.13700
C1759       C  0.81232903  0.06760037  0.31150668    -0.15900
C1760       C  0.82515423  0.09424266  0.28483142    -0.31100
H1761       H  0.80895349  0.07628930  0.33856120     0.13100
H1762       H  0.82940607  0.08681680  0.25758845     0.13700
C1763       C  0.86233835  0.27533627  0.32758597    -0.15900
C1764       C  0.84604834  0.23963968  0.34271336    -0.31100
H1765       H  0.87109159  0.27858631  0.29942527     0.13100
H1766       H  0.83889739  0.23623327  0.37126537     0.13700
C1767       C  0.76039180  0.10569280  0.28989189    -0.15900
C1768       C  0.74678597  0.08417284  0.32010922    -0.31100
H1769       H  0.74951552  0.09184045  0.26361624     0.13100
H1770       H  0.76072767  0.09780476  0.34581068     0.13700
C1771       C  0.92324583  0.25497886  0.35820951    -0.15900
C1772       C  0.91432908  0.23211936  0.32864055    -0.31100
H1773       H  0.90619003  0.24360694  0.38276207     0.13100
H1774       H  0.93329915  0.24349550  0.30514993     0.13700
C1775       C  0.76271274  0.20210621  0.32623397    -0.15900
C1776       C  0.77338468  0.18568162  0.30040988    -0.31100
H1777       H  0.77477994  0.20613772  0.35323518     0.13100
H1778       H  0.75787334  0.17764553  0.27462708     0.13700
C1779       C  0.90006321  0.15256646  0.31125264    -0.15900
C1780       C  0.90899495  0.14384954  0.34373243    -0.31100
H1781       H  0.91160557  0.14691660  0.28677759     0.13100
H1782       H  0.89749134  0.14948653  0.36821936     0.13700
O1783       O  0.64214440  0.67069859  0.35621340    -0.87800
C1784       C  0.61688077  0.75858208  0.36581156     0.88200
Mg1785     Mg  0.64639034  0.64613216  0.30528506     1.58100
O1786       O  0.54594070  0.66042259  0.38933467    -0.87500
O1787       O  0.61961402  0.65271397  0.41038757    -0.74900
C1788       C  0.48180464  0.60139134  0.21689221     0.93300
O1789       O  0.66144416  0.73853771  0.30014647    -0.74700
O1790       O  0.51678454  0.61061734  0.20814364    -0.82200
Mg1791     Mg  0.67584240  0.73449466  0.36024455     1.58000
C1792       C  0.93635443  0.62895253  0.34494079     0.93200
O1793       O  0.69707242  0.73880982  0.41869444    -0.80400
H1794       H  0.52635787  0.61171032  0.41961681    -0.05800
C1795       C  0.53326953  0.69044703  0.28537664     0.88100
O1796       O  0.58584385  0.59016753  0.31298167    -0.74900
O1797       O  0.62431887  0.73376149  0.37823268    -0.87700
O1798       O  0.96042546  0.64032958  0.37112985    -0.80500
C1799       C  0.53796922  0.73013668  0.44422241     0.93300
C1800       C  0.68759604  0.73929140  0.45140211     0.93200
Mg1801     Mg  0.49236384  0.60523681  0.30761385     1.58000
O1802       O  0.97258982  0.60138136  0.24857918    -0.80400
O1803       O  0.50613846  0.60034531  0.36780821    -0.74700
O1804       O  0.57051044  0.73079949  0.44775972    -0.80500
O1805       O  0.72881418  0.73087596  0.34631124    -0.82200
O1806       O  0.59857224  0.60697964  0.22024628    -0.80600
C1807       C  0.52626579  0.62393689  0.39349580     0.87600
O1808       O  0.54394842  0.60540372  0.29010302    -0.87700
O1809       O  0.52679541  0.66915737  0.31194575    -0.87800
O1810       O  0.55029104  0.68690972  0.25791592    -0.74900
Mg1811     Mg  0.59654382  0.69436548  0.42415876     1.58000
O1812       O  0.51579005  0.71563021  0.41671813    -0.82200
H1813       H  0.64609228  0.62810423  0.38228658    -0.06000
O1814       O  0.62303997  0.67819473  0.27838886    -0.87500
H1815       H  0.64191743  0.72685147  0.24816709    -0.05800
H1816       H  0.52704673  0.55103291  0.30862198    -0.06000
C1817       C  0.64211102  0.71473448  0.27432472     0.87600
C1818       C  0.63670166  0.64972765  0.38278281     0.88200
C1819       C  0.55113895  0.58081513  0.30351270     0.88200
H1820       H  0.52472243  0.71272323  0.28568338    -0.05900
O1821       O  0.58204747  0.74923274  0.35681075    -0.75000
Mg1822     Mg  0.57253842  0.64435489  0.24390341     1.58000
H1823       H  0.64080079  0.78860208  0.36128215    -0.06000
C1824       C  0.73394510  0.71352780  0.31989796     0.93200
O1825       O  0.65177385  0.62052536  0.25296234    -0.82200
C1826       C  0.63033125  0.60616885  0.22498865     0.93300
O1827       O  0.65227850  0.72881624  0.46016403    -0.82200
Mg1828     Mg  0.52178269  0.69246748  0.36352265     1.58200
O1829       O  0.70818549  0.69714318  0.29521360    -0.80500
O1830       O  0.93960580  0.60967398  0.31905736    -0.82200
C1831       C  0.64573035  0.59225102  0.19574824     0.02800
C1832       C  0.64121025  0.55418378  0.19528094     0.02800
C1833       C  0.66254918  0.54555659  0.16980195    -0.17700
C1834       C  0.68841089  0.57422400  0.14486361     0.02800
C1835       C  0.69134343  0.61198462  0.14469831     0.02800
C1836       C  0.67018447  0.62029348  0.17028943    -0.17700
H1837       H  0.67302428  0.64942983  0.17052946     0.04800
H1838       H  0.65951832  0.51636572  0.16979646     0.04800
C1839       C  0.91474543  0.55332538  0.18843978     0.02800
C1840       C  0.95113606  0.58988226  0.18814699     0.02800
C1841       C  0.95573452  0.61997732  0.16424043    -0.17700
C1842       C  0.92522530  0.61455099  0.14048507     0.02800
C1843       C  0.88923260  0.57760527  0.14018674     0.02800
C1844       C  0.88476417  0.54792697  0.16428476    -0.17700
H1845       H  0.85703986  0.51979829  0.16433043     0.04800
H1846       H  0.98338976  0.64812192  0.16425926     0.04800
O1847       O  0.53427856  0.85949317  0.31263888    -0.87800
C1848       C  0.54044869  0.96594239  0.30444278     0.88200
Mg1849     Mg  0.53339703  0.83106128  0.36353308     1.58100
O1850       O  0.61791392  0.95035238  0.27852862    -0.87500
O1851       O  0.54987269  0.86430248  0.25634125    -0.74900
C1852       C  0.69253185  0.96164945  0.44826784     0.93300
O1853       O  0.50686089  0.89927641  0.37026767    -0.74700
O1854       O  0.65903124  0.93278439  0.45783711    -0.82200
Mg1855     Mg  0.49188769  0.87886221  0.31024101     1.58000
C1856       C  0.72133981  0.54301255  0.32210266     0.93200
O1857       O  0.97009566  0.86015014  0.25185631    -0.80400
H1858       H  0.64162637  0.92649090  0.24692849    -0.05800
C1859       C  0.63102288  0.99204438  0.38424236     0.88100
O1860       O  0.59533070  0.84147606  0.35458754    -0.74900
O1861       O  0.53693850  0.93534812  0.29093796    -0.87700
O1862       O  0.69771004  0.52528257  0.29648975    -0.80500
C1863       C  0.62201884  0.52616862  0.22525471     0.93300
C1864       C  0.47662830  0.87350319  0.21978872     0.93200
Mg1865     Mg  0.67755043  0.95754734  0.35842004     1.58000
O1866       O  0.69947081  0.97480806  0.41618924    -0.80400
O1867       O  0.66337022  0.93816297  0.29822809    -0.74700
O1868       O  0.59221302  0.99168584  0.21808820    -0.80500
O1869       O  0.94783932  0.81540875  0.32311766    -0.82200
O1870       O  0.57777355  0.84451830  0.45043099    -0.80600
C1871       C  0.64082989  0.93796249  0.27331593     0.87600
O1872       O  0.63200786  0.90098932  0.37718386    -0.87700
O1873       O  0.63534299  0.97727482  0.35658696    -0.87800
O1874       O  0.61948797  0.97191743  0.41286838    -0.74900
Mg1875     Mg  0.56726627  0.92877148  0.24404178     1.58000
O1876       O  0.63957399  0.53626828  0.25548068    -0.82200
H1877       H  0.53184472  0.81397979  0.28541740    -0.06000
O1878       O  0.55171752  0.88638060  0.39058379    -0.87500
H1879       H  0.52880543  0.91159048  0.42150489    -0.05800
H1880       H  0.65491546  0.86881839  0.35897986    -0.06000
C1881       C  0.52928433  0.89948060  0.39534553     0.87600
C1882       C  0.53840107  0.84442571  0.28510173     0.88200
C1883       C  0.62871671  0.87037691  0.36395565     0.88200
H1884       H  0.63741997  0.02243871  0.38413958    -0.05900
O1885       O  0.57384359  0.99453017  0.31423107    -0.75000
Mg1886     Mg  0.60223334  0.90739947  0.42471980     1.58000
H1887       H  0.51438279  0.96773585  0.30935175    -0.06000
C1888       C  0.95027968  0.79680457  0.34993296     0.93200
O1889       O  0.52894311  0.80056100  0.41521156    -0.82200
C1890       C  0.54732602  0.81021456  0.44500928     0.93300
O1891       O  0.51024142  0.90259203  0.21058612    -0.82200
Mg1892     Mg  0.63540204  0.50623754  0.30731880     1.58200
O1893       O  0.97352119  0.81578759  0.37526041    -0.80500
O1894       O  0.72278254  0.52318963  0.34834712    -0.82200
O1895       O  0.81518727  0.85088656  0.34497659    -0.87800
C1896       C  0.85620052  0.94077759  0.41858067     0.88200
Mg1897     Mg  0.84750240  0.84785369  0.29884461     1.58100
O1898       O  0.77958827  0.92458007  0.35867180    -0.87500
O1899       O  0.75657994  0.83552961  0.36314092    -0.74900
C1900       C  0.90340743  0.52160934  0.21585779     0.93300
O1901       O  0.90418205  0.90996185  0.36509805    -0.74700
O1902       O  0.91747992  0.99449382  0.21585669    -0.82200
Mg1903     Mg  0.84731207  0.86496025  0.39534138     1.58000
C1904       C  0.80213782  0.52652507  0.30891958     0.93200
O1905       O  0.79692857  0.82060149  0.42939881    -0.80400
H1906       H  0.72599064  0.89025165  0.33690431    -0.05800
C1907       C  0.89285945  0.00548415  0.32143497     0.88100
O1908       O  0.81012955  0.85988110  0.25935261    -0.74900
O1909       O  0.83095670  0.90853470  0.40557465    -0.87700
O1910       O  0.78748277  0.50199987  0.33446104    -0.80500
C1911       C  0.77267312  0.96804490  0.44190254     0.93300
C1912       C  0.76864963  0.81497964  0.44955863     0.93200
Mg1913     Mg  0.82536303  0.96829092  0.27012578     1.58000
O1914       O  0.87497160  0.51536363  0.23630319    -0.80400
O1915       O  0.76807632  0.92358355  0.30019446    -0.74700
O1916       O  0.76708327  0.93265510  0.44440392    -0.80500
O1917       O  0.85708531  0.81348347  0.38656723    -0.82200
O1918       O  0.90304869  0.90075342  0.22177794    -0.80600
C1919       C  0.75664775  0.91211948  0.33241678     0.87600
O1920       O  0.84083310  0.92467487  0.26012379    -0.87700
O1921       O  0.85680039  0.98280558  0.32101272    -0.87800
O1922       O  0.91526642  0.99860295  0.30209462    -0.74900
Mg1923     Mg  0.76719059  0.88505285  0.40343203     1.58000
O1924       O  0.78980519  0.99003297  0.41483235    -0.82200
H1925       H  0.76646378  0.80313556  0.32619108    -0.06000
O1926       O  0.89154618  0.90927208  0.30696050    -0.87500
H1927       H  0.94547876  0.94371206  0.32798035    -0.05800
H1928       H  0.79521145  0.89203823  0.22693654    -0.06000
C1929       C  0.91497204  0.92169566  0.33283649     0.87600
C1930       C  0.77909529  0.82862368  0.34403730     0.88200
C1931       C  0.81504529  0.89247429  0.24745139     0.88200
H1932       H  0.90373838  0.53355307  0.33874932    -0.05900
O1933       O  0.86037270  0.97323304  0.40709710    -0.75000
Mg1934     Mg  0.90432507  0.94846773  0.26213877     1.58000
H1935       H  0.87602107  0.94141797  0.43921391    -0.06000
C1936       C  0.86847303  0.80627087  0.35727160     0.93200
O1937       O  0.88001670  0.84324236  0.25116146    -0.82200
C1938       C  0.89682327  0.86522893  0.22413730     0.93300
O1939       O  0.75454389  0.83822018  0.44890422    -0.82200
Mg1940     Mg  0.82369164  0.98586877  0.36704408     1.58200
O1941       O  0.88425253  0.83287280  0.33357713    -0.80500
O1942       O  0.81324781  0.51785384  0.28028944    -0.82200
C1943       C  0.90796844  0.84760990  0.19441213     0.02800
C1944       C  0.94588169  0.85177773  0.19224758     0.02800
C1945       C  0.95348783  0.83214477  0.16467767    -0.17700
C1946       C  0.92462596  0.80872444  0.13903037     0.02800
C1947       C  0.88698500  0.80461205  0.14080892     0.02800
C1948       C  0.87885228  0.82367196  0.16881690    -0.17700
H1949       H  0.85013206  0.82109810  0.16991632     0.04800
H1950       H  0.98248270  0.83538547  0.16296177     0.04800
O1951       O  0.67911028  0.97563580  0.99128777    -0.87800
C1952       C  0.76578131  0.51958625  0.91547486     0.88200
Mg1953     Mg  0.68121286  0.00954122  0.03890008     1.58100
O1954       O  0.74850678  0.93659057  0.97402464    -0.87500
O1955       O  0.66126836  0.91596934  0.97189597    -0.74900
C1956       C  0.85692483  0.56551230  0.11314407     0.93300
O1957       O  0.73933844  0.56782420  0.97168673    -0.74700
O1958       O  0.83281558  0.57843353  0.11472352    -0.82200
Mg1959     Mg  0.69205056  0.00745887  0.94129604     1.58000
C1960       C  0.84935765  0.94912763  0.01737121     0.93200
O1961       O  0.64435418  0.95567967  0.90724063    -0.80400
H1962       H  0.71319753  0.88322245  0.99587363    -0.05800
C1963       C  0.83566476  0.55335922  0.00884231     0.88100
O1964       O  0.69625038  0.97185340  0.07545916    -0.74900
O1965       O  0.73345736  0.98943166  0.92909084    -0.87700
O1966       O  0.82100850  0.93596963  0.99542961    -0.80500
C1967       C  0.78715035  0.92931826  0.88851427     0.93300
C1968       C  0.63927978  0.92783119  0.88580202     0.93200
Mg1969     Mg  0.80311509  0.48521549  0.05857332     1.58000
O1970       O  0.85155610  0.53768711  0.09148267    -0.80400
O1971       O  0.75156845  0.92451555  0.03171992    -0.74700
O1972       O  0.75294766  0.92571780  0.88681207    -0.80500
O1973       O  0.64515850  0.52569266  0.95413581    -0.82200
O1974       O  0.73994855  0.56748906  0.11591775    -0.80600
C1975       C  0.73683840  0.91354410  0.00006215     0.87600
O1976       O  0.76129513  0.50242043  0.07350643    -0.87700
O1977       O  0.81290923  0.51705297  0.00947821    -0.87800
O1978       O  0.83038872  0.57647117  0.02911400    -0.74900
Mg1979     Mg  0.70853500  0.92532222  0.93018936     1.58000
O1980       O  0.80927023  0.94360107  0.91596248    -0.82200
H1981       H  0.63138906  0.92729499  0.01011835    -0.06000
O1982       O  0.74179537  0.55466636  0.02914336    -0.87500
H1983       H  0.77520530  0.60911254  0.00872289    -0.05800
H1984       H  0.72750407  0.95418137  0.10584150    -0.06000
C1985       C  0.75281156  0.57844410  0.00371665     0.87600
C1986       C  0.65612076  0.93936051  0.99192344     0.88200
C1987       C  0.72836830  0.97520120  0.08641005     0.88200
H1988       H  0.86034184  0.56568650  0.99054987    -0.05900
O1989       O  0.79813427  0.52304258  0.92590391    -0.75000
Mg1990     Mg  0.78395520  0.56647487  0.07191556     1.58000
H1991       H  0.76627106  0.54075173  0.89643192    -0.06000
C1992       C  0.63873834  0.53943969  0.98260782     0.93200
O1993       O  0.68102515  0.54275910  0.08914028    -0.82200
C1994       C  0.70447760  0.56103765  0.11514338     0.93300
O1995       O  0.66253887  0.91403506  0.88567780    -0.82200
Mg1996     Mg  0.81066631  0.48325075  0.96205019     1.58200
O1997       O  0.66053728  0.54783502  0.01037578    -0.80500
O1998       O  0.84852426  0.96642279  0.04612646    -0.82200
O1999       O  0.80135207  0.81359410  0.98930610    -0.87800
C2000       C  0.74997907  0.72545913  0.91786336     0.88200
Mg2001     Mg  0.83443204  0.81078253  0.03486279     1.58100
O2002       O  0.69050683  0.74391727  0.97613896    -0.87500
O2003       O  0.75984210  0.83192673  0.97291476    -0.74900
C2004       C  0.71044814  0.64205371  0.11598437     0.93300
O2005       O  0.82670815  0.75229856  0.96736757    -0.74700
O2006       O  0.74793450  0.66417691  0.11436821    -0.82200
Mg2007     Mg  0.81915081  0.80145658  0.93903567     1.58000
C2008       C  0.59963153  0.64618019  0.02581077     0.93200
O2009       O  0.81446286  0.84903724  0.90616549    -0.80400
H2010       H  0.67356812  0.78031709  0.99652569    -0.05800
C2011       C  0.71107632  0.65564926  0.01198578     0.88100
O2012       O  0.78510511  0.80103286  0.07352406    -0.74900
O2013       O  0.75828969  0.75915380  0.92780691    -0.87700
O2014       O  0.61319974  0.66719942  0.99782220    -0.80500
C2015       C  0.64196668  0.70303357  0.89145185     0.93300
C2016       C  0.79038738  0.85362856  0.88648828     0.93200
Mg2017     Mg  0.68490361  0.69632711  0.06305191     1.58000
O2018       O  0.68743648  0.64833781  0.09650765    -0.80400
O2019       O  0.67767819  0.74456606  0.03382355    -0.74700
O2020       O  0.67233428  0.73812084  0.88967838    -0.80500
O2021       O  0.88279666  0.85069427  0.95201557    -0.82200
O2022       O  0.82773100  0.75460726  0.11180159    -0.80600
C2023       C  0.68009198  0.75701461  0.00163640     0.87600
O2024       O  0.74568098  0.73642847  0.07275898    -0.87700
O2025       O  0.70024590  0.68019844  0.01343127    -0.87800
O2026       O  0.74108429  0.66092334  0.02949753    -0.74900
Mg2027     Mg  0.71919179  0.78353106  0.93197824     1.58000
O2028       O  0.63533573  0.68081280  0.91840122    -0.82200
H2029       H  0.80407714  0.86245880  0.00932828    -0.06000
O2030       O  0.81097674  0.74907272  0.02478765    -0.87500
H2031       H  0.82854559  0.71372100  0.00300643    -0.05800
H2032       H  0.73669485  0.77211138  0.10513326    -0.06000
C2033       C  0.82224625  0.73732200  0.99884801     0.87600
C2034       C  0.78939497  0.83719786  0.99130365     0.88200
C2035       C  0.75518059  0.76962965  0.08506505     0.88200
H2036       H  0.69516530  0.62962849  0.99494786    -0.05900
O2037       O  0.72059047  0.69422166  0.93042184    -0.75000
Mg2038     Mg  0.78231685  0.70964185  0.06942659     1.58000
H2039       H  0.76922206  0.72247577  0.89903884    -0.06000
C2040       C  0.90171980  0.85123571  0.98007465     0.93200
O2041       O  0.86879998  0.81015848  0.08227416    -0.82200
C2042       C  0.85953659  0.78842314  0.10999724     0.93300
O2043       O  0.75310977  0.82974704  0.88770010    -0.82200
Mg2044     Mg  0.66881659  0.68218615  0.96697368     1.58200
O2045       O  0.88673869  0.82192748  0.00105716    -0.80500
O2046       O  0.62124250  0.65123317  0.05313148    -0.82200
O2047       O  0.99969399  0.80667320  0.97798936    -0.87800
C2048       C  0.58663868  0.78282922  0.97044264     0.88200
Mg2049     Mg  0.97669831  0.81182334  0.02913200     1.58100
O2050       O  0.99324043  0.70824108  0.94191707    -0.87500
O2051       O  0.98170018  0.78040572  0.92424799    -0.74900
C2052       C  0.93427910  0.64552459  0.11324493     0.93300
O2053       O  0.56730748  0.82825548  0.03433845    -0.74700
O2054       O  0.94340701  0.68063709  0.12282813    -0.82200
Mg2055     Mg  0.56084204  0.84063446  0.97437105     1.58000
C2056       C  0.95675417  0.59611178  0.98441050     0.93200
O2057       O  0.56130790  0.85921370  0.91689151    -0.80400
H2058       H  0.94520052  0.68873088  0.91079293    -0.05800
C2059       C  0.52124389  0.69784243  0.04869531     0.88100
O2060       O  0.92104146  0.75080111  0.02087747    -0.74900
O2061       O  0.56111638  0.78853410  0.95718732    -0.87700
O2062       O  0.47729039  0.62010902  0.96384770    -0.80500
C2063       C  0.56577021  0.70319405  0.89255716     0.93300
C2064       C  0.56218520  0.84952935  0.88439204     0.93200
Mg2065     Mg  0.93762965  0.65747062  0.02286370     1.58000
O2066       O  0.93457638  0.63635861  0.08041807    -0.80400
O2067       O  0.93326061  0.67086347  0.96293337    -0.74700
O2068       O  0.56308244  0.73421031  0.88779085    -0.80500
O2069       O  0.55799173  0.89512245  0.98824442    -0.82200
O2070       O  0.93794727  0.76172411  0.11175054    -0.80600
C2071       C  0.95703922  0.68909591  0.93727982     0.87600
O2072       O  0.93862500  0.70956453  0.04104225    -0.87700
O2073       O  0.50002132  0.69020414  0.02178523    -0.87800
O2074       O  0.51796443  0.71612009  0.07548268    -0.74900
Mg2075     Mg  0.52359163  0.75826969  0.91057840     1.58000
O2076       O  0.55244387  0.68153617  0.92039537    -0.82200
H2077       H  0.95452695  0.80495468  0.95142135    -0.06000
O2078       O  0.50785583  0.78864647  0.05534030    -0.87500
H2079       H  0.55623593  0.80896590  0.08619457    -0.05800
H2080       H  0.88359589  0.69119316  0.02425319    -0.06000
C2081       C  0.54402810  0.80859438  0.05989309     0.87600
C2082       C  0.97781161  0.79798870  0.95138011     0.88200
C2083       C  0.91305026  0.71597261  0.02908074     0.88200
H2084       H  0.54360365  0.68958015  0.04908870    -0.05900
O2085       O  0.57899192  0.74837015  0.97962577    -0.75000
Mg2086     Mg  0.97622825  0.73721428  0.08828199     1.58000
H2087       H  0.61577315  0.80801061  0.97563583    -0.06000
C2088       C  0.54358736  0.90138134  0.01618724     0.93200
O2089       O  0.95210427  0.81686434  0.08167790    -0.82200
C2090       C  0.93747571  0.79403689  0.10855591     0.93300
O2091       O  0.55480657  0.81475327  0.87543920    -0.82200
Mg2092     Mg  0.52537693  0.68571241  0.97211017     1.58200
O2093       O  0.02788700  0.87456049  0.04060095    -0.80500
O2094       O  0.93907648  0.60351390  0.00877332    -0.82200
O2095       O  0.64647952  0.51507426  0.67715082    -0.87800
C2096       C  0.68226921  0.60190289  0.75203831     0.88200
Mg2097     Mg  0.68189515  0.51816144  0.63116603     1.58100
O2098       O  0.60500607  0.58648852  0.69333903    -0.87500
O2099       O  0.58664420  0.49864201  0.69282988    -0.74900
C2100       C  0.72967485  0.69127601  0.55556932     0.93300
O2101       O  0.73382899  0.57673623  0.70102517    -0.74700
O2102       O  0.74547470  0.66963490  0.55717295    -0.82200
Mg2103     Mg  0.67643976  0.52810314  0.72822779     1.58000
C2104       C  0.61805511  0.68897114  0.64625275     0.93200
O2105       O  0.62719213  0.98011110  0.76149019    -0.80400
H2106       H  0.55154273  0.55150010  0.67159946    -0.05800
C2107       C  0.71631441  0.67288286  0.66121720     0.88100
O2108       O  0.64393433  0.53131357  0.59321246    -0.74900
O2109       O  0.65745317  0.56938089  0.73914477    -0.87700
O2110       O  0.60968839  0.66768594  0.67424658    -0.80500
C2111       C  0.59742015  0.62305319  0.77927048     0.93300
C2112       C  0.59813745  0.97382695  0.78123127     0.93200
Mg2113     Mg  0.64948545  0.63605705  0.60767110     1.58000
O2114       O  0.70011571  0.68413022  0.57482081    -0.80400
O2115       O  0.59284449  0.58764551  0.63548102    -0.74700
O2116       O  0.59317550  0.58826774  0.77980966    -0.80500
O2117       O  0.69606897  0.98267964  0.71845321    -0.82200
O2118       O  0.73775489  0.57888653  0.55691048    -0.80600
C2119       C  0.58185618  0.57451048  0.66731074     0.87600
O2120       O  0.66996361  0.59569437  0.59688096    -0.87700
O2121       O  0.68038760  0.65035282  0.65827334    -0.87800
O2122       O  0.74042846  0.66749517  0.64305115    -0.74900
Mg2123     Mg  0.59395057  0.54476055  0.73582718     1.58000
O2124       O  0.61272985  0.64648093  0.75293615    -0.82200
H2125       H  0.59889769  0.46907415  0.65471381    -0.06000
O2126       O  0.72272432  0.57959732  0.64311722    -0.87500
H2127       H  0.77580086  0.61396967  0.66585436    -0.05800
H2128       H  0.62537058  0.56206407  0.56309404    -0.06000
C2129       C  0.74538538  0.59091611  0.66952756     0.87600
C2130       C  0.61041946  0.49307014  0.67418634     0.88200
C2131       C  0.64600879  0.56332213  0.58315354     0.88200
H2132       H  0.72739869  0.69701209  0.68051707    -0.05900
O2133       O  0.68480731  0.63400189  0.74158567    -0.75000
Mg2134     Mg  0.73395912  0.62161379  0.60051042     1.58000
H2135       H  0.70332916  0.60317857  0.77162249    -0.06000
C2136       C  0.71173775  0.97706904  0.69102665     0.93200
O2137       O  0.71770235  0.52030138  0.58324455    -0.82200
C2138       C  0.73426577  0.54435607  0.55742807     0.93300
O2139       O  0.58157858  0.49715545  0.77924282    -0.82200
Mg2140     Mg  0.64657785  0.64780202  0.70468084     1.58200
O2141       O  0.72118707  0.99934904  0.66363463    -0.80500
O2142       O  0.63228486  0.68215586  0.61839295    -0.82200
C2143       C  0.61290474  0.68591635  0.86173741     0.02800
C2144       C  0.57765770  0.68708588  0.86227266     0.02800
C2145       C  0.54825723  0.66528937  0.83647285    -0.17700
C2146       C  0.55204688  0.64111876  0.81069446     0.02800
C2147       C  0.58696034  0.63914665  0.81043615     0.02800
C2148       C  0.61699921  0.66175682  0.83590418    -0.17700
H2149       H  0.64404013  0.66080969  0.83540570     0.04800
H2150       H  0.52118817  0.66623442  0.83712489     0.04800
C2151       C  0.57172336  0.88036579  0.85709199     0.02800
C2152       C  0.60845024  0.91641861  0.85753005     0.02800
C2153       C  0.61490403  0.94606419  0.83273430    -0.17700
C2154       C  0.58551819  0.94199407  0.80862363     0.02800
C2155       C  0.54749838  0.90741391  0.81028019     0.02800
C2156       C  0.54143048  0.87662949  0.83398809    -0.17700
H2157       H  0.51288937  0.84947214  0.83442631     0.04800
H2158       H  0.64345123  0.97330265  0.83252295     0.04800
O2159       O  0.98555359  0.63548403  0.67798385    -0.87800
C2160       C  0.89849275  0.58766764  0.75068084     0.88200
Mg2161     Mg  0.98546207  0.66959940  0.63211896     1.58100
O2162       O  0.91006998  0.52318901  0.69185066    -0.87500
O2163       O  0.99928941  0.59028244  0.69444687    -0.74900
C2164       C  0.81466040  0.55153957  0.55230945     0.93300
O2165       O  0.92782575  0.66538315  0.70008322    -0.74700
O2166       O  0.83880530  0.58900432  0.55307961    -0.82200
Mg2167     Mg  0.97399001  0.65410652  0.72838142     1.58000
C2168       C  0.80692003  0.93404598  0.64281401     0.93200
O2169       O  0.51527780  0.64724608  0.76401981    -0.80400
H2170       H  0.94293845  0.50237494  0.67122447    -0.05800
C2171       C  0.82841245  0.55331556  0.65617939     0.88100
O2172       O  0.97137733  0.61799146  0.59370266    -0.74900
O2173       O  0.93034229  0.59369294  0.73889687    -0.87700
O2174       O  0.82877525  0.94626746  0.67064339    -0.80500
C2175       C  0.86946363  0.47677123  0.77596489     0.93300
C2176       C  0.52037324  0.62302151  0.78290567     0.93200
Mg2177     Mg  0.86433668  0.52182020  0.60516401     1.58000
O2178       O  0.81861564  0.52763006  0.57260046    -0.80400
O2179       O  0.90955944  0.51018174  0.63395955    -0.74700
O2180       O  0.90526296  0.50583468  0.77758828    -0.80500
O2181       O  0.51774453  0.71671961  0.72257374    -0.82200
O2182       O  0.92965795  0.66673241  0.55576561    -0.80600
C2183       C  0.92144742  0.51124478  0.66620334     0.87600
O2184       O  0.90712987  0.58219757  0.59565287    -0.87700
O2185       O  0.85047469  0.53955234  0.65500242    -0.87800
O2186       O  0.83580082  0.58391946  0.63826813    -0.74900
Mg2187     Mg  0.95117466  0.55164173  0.73556098     1.58000
O2188       O  0.84479661  0.96836077  0.75039473    -0.82200
H2189       H  0.03167557  0.63361232  0.65821450    -0.06000
O2190       O  0.92504504  0.65095348  0.64221692    -0.87500
H2191       H  0.89218315  0.67126023  0.66392248    -0.05800
H2192       H  0.93882616  0.56892354  0.56255351    -0.06000
C2193       C  0.91421535  0.66298082  0.66825005     0.87600
C2194       C  0.00670881  0.62070879  0.67614220     0.88200
C2195       C  0.93879565  0.58901458  0.58267972     0.88200
H2196       H  0.80268242  0.53940891  0.67322458    -0.05900
O2197       O  0.86592890  0.55938549  0.73881095    -0.75000
Mg2198     Mg  0.88458832  0.62266928  0.59806689     1.58000
H2199       H  0.89834783  0.60805855  0.77040045    -0.06000
C2200       C  0.52440491  0.73832793  0.69510511     0.93200
O2201       O  0.98697575  0.70496356  0.58432095    -0.82200
C2202       C  0.96442560  0.69723229  0.55720965     0.93300
O2203       O  0.99854978  0.58555205  0.78001595    -0.82200
Mg2204     Mg  0.84977582  0.50649440  0.70135148     1.58200
O2205       O  0.50103572  0.72652389  0.66829461    -0.80500
O2206       O  0.81433105  0.95564594  0.61521505    -0.82200
O2207       O  0.97406971  0.83532841  0.68764006    -0.87800
C2208       C  0.94595494  0.92127754  0.69728419     0.88200
Mg2209     Mg  0.98093756  0.81269716  0.63679186     1.58100
O2210       O  0.87344813  0.82452652  0.72309394    -0.87500
O2211       O  0.94705888  0.81574092  0.74056900    -0.74900
C2212       C  0.81249032  0.76458849  0.55082314     0.93300
O2213       O  0.99205466  0.90433881  0.63227761    -0.74700
O2214       O  0.84743148  0.77421711  0.54097689    -0.82200
Mg2215     Mg  0.50665362  0.89871309  0.69326633     1.58000
C2216       C  0.76073618  0.78330197  0.68098123     0.93200
O2217       O  0.52561251  0.89943249  0.75054224    -0.80400
H2218       H  0.85594487  0.77626414  0.75348515    -0.05800
C2219       C  0.86292875  0.85309095  0.61788346     0.88100
O2220       O  0.92075144  0.75566181  0.64286073    -0.74900
O2221       O  0.95265140  0.89605940  0.70984772    -0.87700
O2222       O  0.78647616  0.80783457  0.70317279    -0.80500
C2223       C  0.86778100  0.89754071  0.77592352     0.93300
C2224       C  0.01595720  0.89968478  0.78237720     0.93200
Mg2225     Mg  0.82505447  0.76810413  0.64127492     1.58000
O2226       O  0.80401430  0.76474467  0.58378888    -0.80400
O2227       O  0.83883530  0.76388225  0.70099982    -0.74700
O2228       O  0.89898865  0.89555101  0.78058866    -0.80500
O2229       O  0.56212658  0.89968474  0.67995916    -0.82200
O2230       O  0.93443241  0.77392139  0.55126169    -0.80600
C2231       C  0.85580740  0.78801544  0.72712760     0.87600
O2232       O  0.87820327  0.77127815  0.62281580    -0.87700
O2233       O  0.85578221  0.83200467  0.64476901    -0.87800
O2234       O  0.88118526  0.85000713  0.59111831    -0.74900
Mg2235     Mg  0.92484861  0.85795426  0.75635282     1.58000
O2236       O  0.84630220  0.88397377  0.74773803    -0.82200
H2237       H  0.97361476  0.79037076  0.71373900    -0.06000
O2238       O  0.95668918  0.84409739  0.60943675    -0.87500
H2239       H  0.97423131  0.89294206  0.57983532    -0.05800
H2240       H  0.86199329  0.71618232  0.63871387    -0.06000
C2241       C  0.97440970  0.88068896  0.60592145     0.87600
C2242       C  0.96565971  0.81309316  0.71386224     0.88200
C2243       C  0.88580180  0.74632271  0.63446456     0.88200
H2244       H  0.85407221  0.87513010  0.61740457    -0.05900
O2245       O  0.91146218  0.91253232  0.68795328    -0.75000
Mg2246     Mg  0.90517800  0.80916521  0.57587114     1.58000
H2247       H  0.97031445  0.95104118  0.69266010    -0.06000
C2248       C  0.57131503  0.88405981  0.65487015     0.96800
O2249       O  0.98823420  0.78917942  0.58411484    -0.82200
C2250       C  0.96727213  0.77483486  0.55585754     0.93300
O2251       O  0.98120540  0.89060705  0.79183975    -0.82200
Mg2252     Mg  0.85076662  0.85709402  0.69516460     1.58200
O2253       O  0.54623149  0.86146205  0.63131812    -0.80500
O2254       O  0.76934570  0.76644345  0.65645170    -0.82200
C2255       C  0.80787915  0.88489133  0.85852478     0.02800
C2256       C  0.80401541  0.91900453  0.85778330     0.02800
C2257       C  0.82538768  0.94866547  0.83194148    -0.17700
C2258       C  0.84965603  0.94462234  0.80650514     0.02800
C2259       C  0.85188713  0.90965277  0.80634988     0.02800
C2260       C  0.83169983  0.88086033  0.83281341    -0.17700
H2261       H  0.83347694  0.85402575  0.83265780     0.04800
H2262       H  0.82358326  0.97545611  0.83195495     0.04800
C2263       C  0.52340822  0.74357231  0.47411767     0.02800
C2264       C  0.52879238  0.78200298  0.47511825     0.02800
C2265       C  0.50889738  0.79092254  0.50162787    -0.17700
C2266       C  0.98412513  0.76213180  0.52664068     0.02800
C2267       C  0.98082915  0.72440230  0.52637413     0.02800
C2268       C  0.50042309  0.71563166  0.50051979    -0.17700
H2269       H  0.49759418  0.68652119  0.50028342     0.04800
H2270       H  0.51179114  0.82005920  0.50190755     0.04800
C2271       C  0.71838024  0.74949642  0.47953149     0.02800
C2272       C  0.75686220  0.78305584  0.47681946     0.02800
C2273       C  0.78743752  0.78504325  0.49861360    -0.17700
C2274       C  0.78069570  0.75564264  0.52407676     0.02800
C2275       C  0.74167020  0.72307726  0.52806300     0.02800
C2276       C  0.71130317  0.72071399  0.50575377    -0.17700
H2277       H  0.68187976  0.69489847  0.50772239     0.04800
H2278       H  0.81690088  0.81077659  0.49652336     0.04800
C2279       C  0.76169550  0.98614380  0.47194479     0.02800
C2280       C  0.72409467  0.98262336  0.47512356     0.02800
C2281       C  0.71700350  0.50349177  0.50225788    -0.17700
C2282       C  0.74661394  0.52923934  0.52639196     0.02800
C2283       C  0.78417219  0.53283225  0.52404565     0.02800
C2284       C  0.79096495  0.51094506  0.49754227    -0.17700
H2285       H  0.81974469  0.51365675  0.49613373     0.04800
H2286       H  0.68802889  0.50029473  0.50401770     0.04800
C2287       C  0.54035989  0.51640248  0.01726910     0.02800
C2288       C  0.51456878  0.97757592  0.00003982     0.02800
C2289       C  0.97326815  0.96086780  0.99916138     0.02800
C2290       C  0.95862947  0.48439253  0.01188826     0.02800
C2291       C  0.48339828  0.52370122  0.02508193     0.02800
C2292       C  0.52409339  0.53935817  0.02852571     0.02800
C2293       C  0.86891444  0.66262196  0.30500566     0.02800
C2294       C  0.83104362  0.63361054  0.29364899     0.02800
C2295       C  0.80027329  0.64197248  0.29223881     0.02800
C2296       C  0.80819237  0.68081248  0.29895069     0.02800
C2297       C  0.84678310  0.71055998  0.30934384     0.02800
C2298       C  0.87692347  0.70116139  0.31270140     0.02800
C2299       C  0.68846310  0.81784769  0.68263014     0.02800
C2300       C  0.70647337  0.85858101  0.67452402     0.02800
C2301       C  0.68393084  0.87472795  0.66142363     0.02800
C2302       C  0.64359936  0.84934747  0.65335624     0.02800
C2303       C  0.62560162  0.80865607  0.66142394     0.02800
C2304       C  0.64805965  0.79245122  0.67460728     0.02800
C2305       C  0.61069317  0.88849891  0.65648514    -0.15900
C2306       C  0.61846788  0.86392453  0.63773312    -0.31100
H2307       H  0.62903045  0.90450269  0.67964680     0.13100
H2308       H  0.59833953  0.84592838  0.61619534     0.13700
C2309       C  0.72107211  0.77828213  0.67998704    -0.15900
C2310       C  0.71358930  0.80331870  0.69837096    -0.31100
H2311       H  0.70225531  0.76155665  0.65731357     0.13100
H2312       H  0.73399444  0.82169107  0.71958880     0.13700
C2313       C  0.76952938  0.89628225  0.64405376    -0.15900
C2314       C  0.74987040  0.88402894  0.67531120    -0.31100
H2315       H  0.75385923  0.88377779  0.61874273     0.13100
H2316       H  0.76406633  0.89755294  0.70090446     0.13700
C2317       C  0.58221617  0.78363303  0.66112162    -0.15900
C2318       C  0.56264263  0.77488030  0.69245394    -0.31100
H2319       H  0.56771064  0.76787638  0.63633666     0.13100
H2320       H  0.57858055  0.78900104  0.71728668     0.13700
C2321       C  0.63019965  0.74879197  0.67757474    -0.15900
C2322       C  0.61650292  0.72565989  0.64779604    -0.31100
H2323       H  0.63678629  0.73742732  0.70173297     0.13100
H2324       H  0.61443382  0.73849587  0.62247109     0.13700
C2325       C  0.70148743  0.91836931  0.65900678    -0.15900
C2326       C  0.71398173  0.94080877  0.68922525    -0.31100
H2327       H  0.69539464  0.93007096  0.63480110     0.13100
H2328       H  0.71544740  0.92749915  0.71448436     0.13700
C2329       C  0.96871355  0.55163160  0.01963291    -0.15900
C2330       C  0.95832857  0.55980123  0.98750726    -0.31100
H2331       H  0.47123245  0.56892033  0.04720845     0.13100
H2332       H  0.95936655  0.54482322  0.96310461     0.13700
C2333       C  0.54327935  0.93841306  0.01999174    -0.15900
C2334       C  0.52999193  0.95085750  0.99252691    -0.31100
H2335       H  0.04561164  0.94963208  0.04803103     0.13100
H2336       H  0.52323864  0.93564646  0.96655128     0.13700
C2337       C  0.55952660  0.61182256  0.02382342    -0.15900
C2338       C  0.55044341  0.57957700  0.04341662    -0.31100
H2339       H  0.54207543  0.60896892  0.99998107     0.13100
H2340       H  0.57000996  0.58170860  0.06522821     0.13700
C2341       C  0.93807812  0.88755471  0.99183044    -0.15900
C2342       C  0.94644082  0.92323779  0.97970924    -0.31100
H2343       H  0.95369852  0.88577138  0.01534778     0.13100
H2344       H  0.92931515  0.92491933  0.95748927     0.13700
C2345       C  0.88517228  0.94917830  0.00626766    -0.15900
C2346       C  0.91723250  0.96575609  0.02729941    -0.31100
H2347       H  0.88711443  0.94246386  0.97820806     0.13100
H2348       H  0.91500311  0.47429078  0.05301228     0.13700
C2349       C  0.58362196  0.53407586  0.01652826    -0.15900
C2350       C  0.60225895  0.54065170  0.98480008    -0.31100
H2351       H  0.59848543  0.53555800  0.04178150     0.13100
H2352       H  0.58637149  0.03443482  0.95638595     0.13700
C2353       C  0.81019452  0.56683943  0.31396375    -0.15900
C2354       C  0.82244077  0.59283158  0.28680844    -0.31100
H2355       H  0.80777743  0.57614509  0.34104295     0.13100
H2356       H  0.82585665  0.58456777  0.25961880     0.13700
C2357       C  0.86033226  0.76598851  0.34993626    -0.15900
C2358       C  0.85630498  0.75196893  0.31600312    -0.31100
H2359       H  0.85462910  0.74625885  0.37264746     0.13100
H2360       H  0.85884404  0.77027203  0.29299023     0.13700
C2361       C  0.75940624  0.60767839  0.29168921    -0.15900
C2362       C  0.74708565  0.58641937  0.32217569    -0.31100
H2363       H  0.74621863  0.59410360  0.26582566     0.13100
H2364       H  0.76264296  0.60000716  0.34732344     0.13700
C2365       C  0.92744627  0.75328707  0.35047633    -0.15900
C2366       C  0.91768718  0.73359986  0.31897631    -0.31100
H2367       H  0.91215712  0.73860391  0.37509577     0.13100
H2368       H  0.93404086  0.74860196  0.29483599     0.13700
C2369       C  0.76876496  0.70954477  0.32033573    -0.15900
C2370       C  0.77575534  0.68939825  0.29500885    -0.31100
H2371       H  0.78619466  0.71904603  0.34489076     0.13100
H2372       H  0.75540434  0.67594509  0.27239979     0.13700
C2373       C  0.89933914  0.65151231  0.30951410    -0.15900
C2374       C  0.90779748  0.64244711  0.34206143    -0.31100
H2375       H  0.91196629  0.64704723  0.28518297     0.13100
H2376       H  0.89570041  0.64757142  0.36640722     0.13700
loop_ 
_geom_bond_atom_site_label_1 
_geom_bond_atom_site_label_2 
_geom_bond_distance 
_geom_bond_site_symmetry_2 
_ccdc_geom_bond_type 
O1           Mg3   2.155       .  S
O1           Mg9   2.161       .  S
O1           C36   1.231       .  S
C2           O15   1.235       .  S
C2           O39   1.268       .  A
C2           H41   1.081       .  S
Mg3          O32   2.135       .  S
Mg3          O47   2.254       .  S
Mg3          O43   2.236       .  S
Mg3          O14   2.299       .  S
O4          Mg46   2.145       .  S
O4          Mg29   2.155       .  S
O4           C25   1.239       .  S
O5           C36   1.263       .  A
O5          Mg29   2.285       .  S
C6            O8   1.277   1_655  A
C6         O1208   1.270       .  A
C6         C1246   1.476       .  S
O7           C35   1.275       .  A
O7           Mg9   2.320       .  S
O8          Mg40   2.303       .  S
Mg9          O15   2.104       .  S
Mg9          O23   2.195       .  S
Mg9          O11   2.281       .  S
C10          O48   1.264       .  A
C10          O16   1.263       .  A
C10         C592   1.468       .  S
O11          C18   1.270       .  A
H12          C25   1.081       .  S
C13          O27   1.231       .  S
C13          O28   1.266       .  A
C13          H38   1.081       .  S
O14          C37   1.271       .  A
O15         Mg29   2.184       .  S
O16       Mg1234   2.260       .  S
C17          O30   1.268       .  A
C17          O22   1.274       .  A
C17         C481   1.457       .  S
C18          O45   1.278       .  A
C18         C489   1.486       .  S
Mg19         O26   2.140   1_655  S
Mg19         O27   2.160   1_655  S
Mg19         O21   2.324   1_655  S
Mg19       O1208   2.280       .  S
Mg19       O1236   2.246       .  S
O20        C1194   1.271       .  A
O20       Mg1207   2.284       .  S
O21          C25   1.275       .  A
O22         Mg29   2.295       .  S
O23          C42   1.259       .  A
O24          C44   1.278       .  A
O24         Mg40   2.339       .  S
O26         Mg40   2.190       .  S
O26          C37   1.237       .  S
O27         Mg46   2.169       .  S
O28         Mg40   2.299       .  S
Mg29         O45   2.318       .  S
O30         Mg46   2.226       .  S
H31          C36   1.081       .  S
O32         Mg40   2.148       .  S
O32          C35   1.240       .  S
H33          C35   1.081       .  S
H34          C37   1.081       .  S
O39         Mg46   2.287       .  S
C42          O47   1.264       .  A
C42         C587   1.449       .  S
O43          C44   1.267       .  A
C44          C49   1.474       .  S
Mg46       O1204   2.255   1_455  S
O48       Mg1207   2.245       .  S
C49          C50   1.404       .  A
C49          C54   1.399       .  A
C50          C81   1.473       .  S
C50          C51   1.415       .  A
C51          H56   1.085       .  S
C51          C52   1.414       .  A
C52         C212   1.487       .  S
C52          C53   1.420       .  A
C53         C222   1.480       .  S
C53          C54   1.406       .  A
C54          H55   1.086       .  S
C57         C118   1.490       .  S
C57          C58   1.418       .  A
C57          C62   1.407       .  A
C58        C1194   1.479       .  S
C58          C59   1.412       .  A
C59          H64   1.085       .  S
C59          C60   1.412       .  A
C60         C270   1.479       .  S
C60          C61   1.418       .  A
C61         C174   1.493       .  S
C61          C62   1.407       .  A
C62          H63   1.086       .  S
O65         Mg67   2.179       .  S
O65         Mg73   2.145   1_455  S
O65         C100   1.228       .  S
C66          O79   1.234       .  S
C66         O103   1.267       .  A
C66         H105   1.081       .  S
Mg67         O96   2.136       .  S
Mg67        O107   2.214       .  S
Mg67         O78   2.291       .  S
Mg67       O1299   2.212   1_455  S
O68         Mg93   2.133       .  S
O68        Mg704   2.149       .  S
O68          C89   1.237       .  S
O69         C100   1.263       .  A
O69         Mg93   2.296       .  S
C70          O72   1.276       .  A
C70          O84   1.270       .  A
C70         C498   1.463       .  S
O71          C99   1.276       .  A
O71         Mg73   2.331   1_455  S
O72        Mg104   2.274       .  S
Mg73         O79   2.133   1_655  S
Mg73       O1275   2.253       .  S
Mg73       O1263   2.302       .  S
C74         O112   1.263       .  A
C74          O80   1.256       .  A
C74         C580   1.466       .  S
O75        C1270   1.275       .  A
O75       Mg1261   2.303       .  S
H76          C89   1.081       .  S
C77          O91   1.229       .  S
C77          O92   1.264       .  A
C77         H102   1.081       .  S
O78         C101   1.268       .  A
O79         Mg93   2.194       .  S
O80        Mg110   2.213       .  S
C81          O94   1.263       .  A
C81         O680   1.279   1_545  A
C82         O109   1.278   1_655  A
C82        O1263   1.275       .  A
C82        C1350   1.474       .  S
Mg83         O90   2.148       .  S
Mg83         O91   2.161       .  S
Mg83         O84   2.268       .  S
Mg83         O85   2.320       .  S
Mg83        O706   2.266       .  S
O85          C89   1.274       .  A
O86         C675   1.279       .  A
O86         Mg93   2.342       .  S
O87         C106   1.265       .  A
O87       Mg1261   2.253       .  S
O88         C108   1.280       .  A
O88        Mg104   2.357       .  S
O90        Mg104   2.202       .  S
O90         C101   1.235       .  S
O91        Mg704   2.186       .  S
O92        Mg104   2.303       .  S
Mg93        O109   2.282       .  S
O94        Mg110   2.206       .  S
H95         C100   1.081       .  S
O96        Mg104   2.124       .  S
O96          C99   1.239       .  S
H97          C99   1.081       .  S
H98         C101   1.081       .  S
O103       Mg704   2.284       .  S
C106        O111   1.248       .  A
C106        C583   1.458       .  S
O107        C108   1.262       .  A
C108        C482   1.482       .  S
Mg110       O662   2.146   1_545  S
Mg110       O685   2.175   1_545  S
Mg110       O697   2.285   1_545  S
O111      Mg1255   2.211       .  S
O112       Mg677   2.261   1_545  S
O113       Mg115   2.181       .  S
O113       Mg121   2.151       .  S
O113        C148   1.233       .  S
C114        O127   1.235       .  S
C114        O151   1.269       .  A
C114        H153   1.081       .  S
Mg115       O144   2.130       .  S
Mg115       O159   2.178       .  S
Mg115       O155   2.224       .  S
Mg115       O126   2.282       .  S
O116       Mg158   2.141       .  S
O116       Mg141   2.150       .  S
O116        C137   1.241       .  S
O117        C148   1.269       .  A
O117       Mg141   2.311       .  S
C118        O132   1.269       .  A
C118        O714   1.281   1_545  A
O119        C147   1.279       .  A
O119       Mg121   2.342       .  S
O120        C712   1.279       .  A
O120       Mg152   2.322       .  S
Mg121       O127   2.151       .  S
Mg121       O135   2.322       .  S
Mg121       O123   2.275       .  S
C122        O160   1.257       .  A
C122        O128   1.262       .  A
C122        C571   1.448       .  S
O123        C130   1.272       .  A
H124        C137   1.081       .  S
C125        O139   1.233       .  S
C125        O140   1.268       .  A
C125        H744   1.080       .  S
O126        C149   1.267       .  A
O127       Mg141   2.185       .  S
O128       Mg752   2.234   1_545  S
C129        O142   1.271       .  A
C129        O134   1.291       .  A
C129        C497   1.499       .  S
C130        O157   1.284       .  A
C130        C490   1.484       .  S
Mg131       O138   2.104       .  S
Mg131       O139   2.160       .  S
Mg131       O133   2.326       .  S
Mg131       O726   2.291       .  S
Mg131       O754   2.190       .  S
O132       Mg725   2.276   1_545  S
O133        C137   1.277       .  A
O134       Mg141   2.419       .  S
O135        C154   1.263       .  A
O136        C156   1.284       .  A
O136       Mg152   2.375       .  S
O138       Mg152   2.180       .  S
O138        C149   1.235       .  S
O139       Mg158   2.192       .  S
O140       Mg152   2.307       .  S
Mg141       O157   2.336       .  S
O142       Mg158   2.268       .  S
H143        C148   1.080       .  S
O144       Mg152   2.125       .  S
O144        C147   1.243       .  S
H145        C147   1.081       .  S
H146        C149   1.081       .  S
H150        C719   1.081       .  S
O151       Mg158   2.295       .  S
C154        O159   1.246       .  A
C154        C575   1.469       .  S
O155        C156   1.265       .  A
C156        C161   1.477       .  S
Mg158       O722   2.235       .  S
O160       Mg725   2.195   1_545  S
C161        C162   1.419       .  A
C161        C166   1.406       .  A
C162       C1270   1.475       .  S
C162        C163   1.398       .  A
C163        H168   1.086       .  S
C163        C164   1.400       .  A
C164        C308   1.469       .  S
C164        C165   1.411       .  A
C165        C260   1.468       .  S
C165        C166   1.404       .  A
C166        H167   1.085       .  S
O169       Mg171   2.164   1_556  S
O169       Mg177   2.141       .  S
O169        C204   1.233       .  S
C170        O777   1.237   1_545  S
C170        O207   1.270       .  A
C170        H209   1.081       .  S
Mg171       O794   2.153       .  S
Mg171       O182   2.287       .  S
Mg171       O809   2.265       .  S
Mg171       O805   2.234       .  S
O172       Mg197   2.137       .  S
O172       Mg808   2.131       .  S
O172        C193   1.241       .  S
O173        C204   1.268       .  A
O173       Mg197   2.302       .  S
C174        O176   1.285       .  A
C174        O188   1.275       .  A
O175        C203   1.276   1_556  A
O175       Mg771   2.322       .  S
O176       Mg208   2.352       .  S
Mg177       O183   2.129       .  S
Mg177       O179   2.305       .  S
Mg177       O769   2.321       .  S
Mg177       O785   2.246       .  S
C178        O216   1.269       .  A
C178        O184   1.256   1_554  A
C178        C563   1.466       .  S
O179        C186   1.276       .  A
H180        C193   1.081       .  S
C181        O195   1.234       .  S
C181        O196   1.269       .  A
C181        H206   1.081   1_554  S
O182        C205   1.268       .  A
O183       Mg197   2.182       .  S
O183        C764   1.237       .  S
O184       Mg808   2.237       .  S
C185        O198   1.263       .  A
C185        O190   1.282       .  A
C185        C474   1.475       .  S
C186        O213   1.277       .  A
C186        C370   1.480       .  S
Mg187       O194   2.151   1_565  S
Mg187       O195   2.132   1_565  S
Mg187       O188   2.293   1_565  S
Mg187       O783   2.332       .  S
Mg187       O810   2.294       .  S
O189        C193   1.277   1_554  A
O189       Mg781   2.327       .  S
O190       Mg197   2.369       .  S
O191        C210   1.265       .  A
O191       Mg771   2.248       .  S
O192        C212   1.289       .  A
O192       Mg208   2.403       .  S
O194       Mg208   2.193       .  S
O194        C799   1.236   1_545  S
O195       Mg214   2.165   1_544  S
O196       Mg208   2.305       .  S
Mg197       O213   2.303       .  S
O198       Mg808   2.217       .  S
H199        C204   1.080   1_554  S
O200       Mg208   2.163       .  S
O200       Mg765   2.147       .  S
O200        C203   1.240       .  S
H201        C203   1.081       .  S
H202        C205   1.081       .  S
C205        O788   1.235       .  S
O207       Mg214   2.294   1_545  S
C210        O215   1.268   1_556  A
C210        C568   1.465       .  S
O211        C212   1.268       .  A
O211       Mg765   2.239       .  S
Mg214       O766   2.126       .  S
Mg214       O778   2.241       .  S
Mg214       O792   2.216       .  S
O215       Mg765   2.270       .  S
O216       Mg781   2.277       .  S
O217       Mg219   2.165   1_556  S
O217       Mg225   2.129       .  S
O217        C252   1.233       .  S
C218        O231   1.238       .  S
C218        O255   1.272       .  A
C218        H257   1.081       .  S
Mg219       O248   2.128       .  S
Mg219       O263   2.258       .  S
Mg219       O259   2.214       .  S
Mg219       O230   2.292       .  S
O220       Mg262   2.131       .  S
O220       Mg245   2.157       .  S
O220        C241   1.241   1_556  S
O221        C252   1.269       .  A
O221       Mg245   2.306       .  S
C222        O224   1.278       .  A
C222        O236   1.275       .  A
O223        C251   1.278   1_556  A
O223       Mg225   2.337       .  S
O224       Mg256   2.311       .  S
Mg225       O231   2.149       .  S
Mg225       O239   2.307       .  S
Mg225       O227   2.320       .  S
C226        O264   1.268       .  A
C226        O232   1.264   1_554  A
C226        C555   1.468       .  S
O227        C234   1.278       .  A
H228        C241   1.081   1_556  S
C229        O243   1.233       .  S
C229        O244   1.267       .  A
C229        H254   1.081   1_554  S
O230        C253   1.271       .  A
O231       Mg245   2.184       .  S
O232       Mg262   2.277       .  S
C233        O246   1.264       .  A
C233        O238   1.284       .  A
C233        C361   1.478       .  S
C234        O261   1.281       .  A
C234        C473   1.488       .  S
Mg235       O242   2.124       .  S
Mg235       O243   2.125       .  S
Mg235       O236   2.302       .  S
Mg235       O237   2.325       .  S
Mg235       O264   2.253       .  S
O237        C241   1.277       .  A
O238       Mg245   2.381       .  S
O239        C258   1.270       .  A
O240        C260   1.280       .  A
O240       Mg256   2.350       .  S
O242       Mg256   2.179       .  S
O242        C253   1.238       .  S
O243       Mg262   2.150   1_554  S
O244       Mg256   2.296       .  S
Mg245       O261   2.320       .  S
O246       Mg262   2.218       .  S
H247        C252   1.080   1_554  S
O248       Mg256   2.148       .  S
O248        C251   1.240       .  S
H249        C251   1.081       .  S
H250        C253   1.081       .  S
O255       Mg262   2.299       .  S
C258        O263   1.257   1_556  A
C258        C559   1.474       .  S
O259        C260   1.264       .  A
O265       Mg267   2.156   1_556  S
O265      Mg1461   2.136       .  S
O265        C300   1.233       .  S
C266        O279   1.236       .  S
C266        O303   1.270       .  A
C266        H305   1.081       .  S
Mg267      O1484   2.142       .  S
Mg267       O311   2.285       .  S
Mg267       O307   2.233       .  S
Mg267       O278   2.290       .  S
O268      Mg1498   2.145       .  S
O268      Mg1481   2.149       .  S
O268        C289   1.239       .  S
O269        C300   1.268       .  A
O269      Mg1481   2.303       .  S
C270        O272   1.278       .  A
C270        O284   1.269       .  A
O271        C299   1.275       .  A
O271       Mg273   2.319   1_554  S
O272       Mg304   2.310       .  S
Mg273       O279   2.135       .  S
Mg273      O1453   2.137   1_455  S
Mg273       O287   2.244       .  S
Mg273       O275   2.272       .  S
C274        O312   1.262   1_556  A
C274       O1468   1.269       .  A
C274        C548   1.454       .  S
O275        C282   1.269       .  A
H276        C289   1.081       .  S
C277        O291   1.231   1_455  S
C277        O292   1.265       .  A
C277        H302   1.082       .  S
O278        C301   1.269       .  A
O279       Mg293   2.178       .  S
O280       C1462   1.269       .  A
O280       Mg310   2.296   1_655  S
C281        O294   1.269       .  A
C281        O286   1.282       .  A
C281        C362   1.475       .  S
C282        O309   1.280       .  A
C282        C369   1.480       .  S
Mg283       O290   2.121       .  S
Mg283      O1479   2.152       .  S
Mg283       O284   2.273       .  S
Mg283       O285   2.312   1_554  S
Mg283       O312   2.200       .  S
O285        C289   1.274       .  A
O286       Mg293   2.356       .  S
O287        C306   1.264   1_556  A
O288        C308   1.278       .  A
O288       Mg304   2.328       .  S
O290       Mg304   2.185       .  S
O290        C301   1.236       .  S
O291       Mg310   2.153   1_654  S
O291      Mg1471   2.150       .  S
O292      Mg1492   2.293   1_455  S
Mg293      O1456   2.156   1_455  S
Mg293       O309   2.323       .  S
Mg293      O1457   2.301   1_455  S
O294       Mg310   2.239       .  S
H295        C300   1.081       .  S
O296      Mg1455   2.142   1_455  S
O296      Mg1492   2.150   1_455  S
O296        C299   1.239       .  S
H297        C299   1.081       .  S
H298        C301   1.081       .  S
O303       Mg310   2.294       .  S
Mg304      O1484   2.148       .  S
Mg304      O1480   2.293       .  S
C306       O1499   1.266       .  A
C306        C551   1.460       .  S
O307        C308   1.268       .  A
Mg310      O1456   2.147   1_455  S
O311       C1494   1.265       .  A
O313       Mg315   2.173       .  S
O313       Mg321   2.144       .  S
O313        C348   1.234   1_545  S
C314        O327   1.235       .  S
C314        O351   1.267       .  A
C314        H353   1.081       .  S
Mg315       O344   2.146       .  S
Mg315       O355   2.246       .  S
Mg315       O326   2.290       .  S
Mg315       O953   2.263       .  S
O316       Mg358   2.147       .  S
O316       Mg341   2.147       .  S
O316        C337   1.239       .  S
O317        C348   1.270   1_545  A
O317       Mg341   2.305       .  S
C318        O320   1.281       .  A
C318        O332   1.273       .  A
C318        C493   1.489       .  S
O319        C347   1.276       .  A
O319       Mg321   2.325       .  S
O320       Mg352   2.333       .  S
Mg321       O327   2.125       .  S
Mg321       O929   2.246   1_545  S
Mg321       O917   2.301   1_545  S
C322        O360   1.267       .  A
C322        O328   1.267       .  A
C322        C540   1.465       .  S
O323        C330   1.277       .  A
O323       Mg915   2.314       .  S
H324        C337   1.081       .  S
C325        O339   1.233       .  S
C325        O340   1.268       .  A
C325        H350   1.079       .  S
O326        C349   1.268       .  A
O327       Mg341   2.178       .  S
O328       Mg358   2.262       .  S
C329        O342   1.267       .  A
C329        O334   1.282       .  A
C329        C365   1.472       .  S
C330        O951   1.277       .  A
C330        C372   1.487       .  S
Mg331       O338   2.138       .  S
Mg331       O339   2.143       .  S
Mg331       O332   2.283       .  S
Mg331       O333   2.309       .  S
Mg331       O360   2.254       .  S
O333        C337   1.273       .  A
O334       Mg341   2.359       .  S
O335        C354   1.267       .  A
O335       Mg915   2.254       .  S
O336        C356   1.284       .  A
O336       Mg352   2.370       .  S
O338       Mg352   2.183       .  S
O338        C349   1.235       .  S
O339       Mg358   2.156       .  S
O340       Mg352   2.296       .  S
Mg341       O357   2.322   1_545  S
O342       Mg358   2.229       .  S
H343        C348   1.079       .  S
O344       Mg352   2.159       .  S
O344        C347   1.240       .  S
H345        C347   1.081       .  S
H346        C349   1.081       .  S
O351       Mg358   2.284       .  S
C354        O359   1.267       .  A
C354        C544   1.465       .  S
O355        C356   1.269       .  A
C356        C500   1.480       .  S
O357        C924   1.278       .  A
O359       Mg909   2.267       .  S
C361        C362   1.414       .  A
C361        C366   1.410       .  A
C362        C363   1.401       .  A
C363        H368   1.086       .  S
C363        C364   1.402       .  A
C364        C394   1.483       .  S
C364        C365   1.415       .  A
C365        C366   1.412       .  A
C366        H367   1.084       .  S
C369        C370   1.416       .  A
C369        C374   1.412       .  A
C370        C371   1.400       .  A
C371        H376   1.086       .  S
C371        C372   1.400       .  A
C372        C373   1.419       .  A
C373       C1630   1.477       .  S
C373        C374   1.413       .  A
C374        H375   1.084       .  S
O377       Mg379   2.160       .  S
O377       Mg385   2.135       .  S
O377        C412   1.233       .  S
C378        O391   1.236       .  S
C378        O415   1.269       .  A
C378        H417   1.081       .  S
Mg379       O408   2.140       .  S
Mg379       O419   2.224       .  S
Mg379       O390   2.286       .  S
Mg379      O1611   2.248       .  S
O380       Mg422   2.146       .  S
O380       Mg405   2.144       .  S
O380        C401   1.239       .  S
O381        C412   1.269       .  A
O381       Mg405   2.304       .  S
C382        O384   1.276       .  A
C382        O396   1.271       .  A
C382        C501   1.469       .  S
O383        C411   1.276       .  A
O383       Mg385   2.323       .  S
O384       Mg416   2.295       .  S
Mg385       O391   2.137       .  S
Mg385      O1587   2.267       .  S
Mg385      O1575   2.288       .  S
C386        O424   1.264       .  A
C386        O392   1.266       .  A
C386        C531   1.463       .  S
O387        C394   1.272       .  A
O387      Mg1573   2.285   1_455  S
H388        C401   1.081       .  S
C389        O403   1.233       .  S
C389        O404   1.267       .  A
C389        H414   1.081       .  S
O390        C413   1.268       .  A
O391       Mg405   2.181       .  S
O392      Mg1016   2.264       .  S
C393        O398   1.284   1_565  A
C393       O1000   1.264       .  A
C393       C1070   1.473       .  S
C394       O1609   1.281   1_455  A
Mg395       O402   2.118       .  S
Mg395       O403   2.138       .  S
Mg395       O396   2.272       .  S
Mg395       O397   2.310       .  S
Mg395      O1018   2.236   1_545  S
O397        C401   1.274       .  A
O398       Mg405   2.368       .  S
O399        C418   1.265       .  A
O399      Mg1573   2.244   1_455  S
O400        C420   1.278       .  A
O400       Mg416   2.339       .  S
O402       Mg416   2.179       .  S
O402        C413   1.235       .  S
O403       Mg422   2.139       .  S
O404       Mg416   2.293       .  S
Mg405       O421   2.320       .  S
O406        C987   1.265       .  A
O406      Mg1016   2.219       .  S
H407        C412   1.079       .  S
O408       Mg416   2.141       .  S
O408        C411   1.240       .  S
H409        C411   1.081       .  S
H410        C413   1.081       .  S
O415       Mg422   2.289       .  S
C418        O423   1.265       .  A
C418        C536   1.460       .  S
O419        C420   1.266       .  A
C420        C485   1.468       .  S
O421       C1582   1.280       .  A
Mg422       O986   2.260   1_545  S
Mg422      O1000   2.214   1_545  S
O423      Mg1567   2.260   1_455  S
O424       Mg989   2.243       .  S
O425       Mg427   2.155       .  S
O425      Mg1621   2.148       .  S
O425        C460   1.234       .  S
C426        O439   1.234       .  S
C426        O463   1.267       .  A
C426        H465   1.081       .  S
Mg427       O456   2.155       .  S
Mg427       O467   2.232       .  S
Mg427       O438   2.292       .  S
Mg427      O1659   2.287       .  S
O428       Mg470   2.153       .  S
O428       Mg453   2.143       .  S
O428        C449   1.238       .  S
O429        C460   1.268       .  A
O429       Mg453   2.300       .  S
C430        O432   1.282       .  A
C430        O444   1.268       .  A
C430        C492   1.485       .  S
O431        C459   1.274       .  A
O431      Mg1621   2.314       .  S
O432       Mg464   2.339       .  S
Mg433      O1613   2.146   1_455  S
Mg433      O1627   2.134   1_455  S
Mg433       O447   2.226       .  S
Mg433       O435   2.250       .  S
Mg433      O1619   2.312   1_455  S
C434        O472   1.264       .  A
C434        O440   1.272       .  A
C434        C527   1.468       .  S
O435       C1630   1.266       .  A
H436        C449   1.081       .  S
C437        O451   1.234       .  S
C437        O452   1.269       .  A
C437        H462   1.081       .  S
O438        C461   1.268       .  A
O439       Mg453   2.181       .  S
O439      Mg1621   2.125       .  S
O440       Mg470   2.286       .  S
C441        O454   1.273       .  A
C441        O446   1.283       .  A
C441        C477   1.484       .  S
C442        O469   1.279       .  A
C442       O1623   1.266       .  A
C442       C1561   1.478       .  S
Mg443       O450   2.137       .  S
Mg443       O451   2.156       .  S
Mg443       O444   2.258       .  S
Mg443       O445   2.300       .  S
Mg443       O472   2.226       .  S
O445        C449   1.272       .  A
O446       Mg453   2.357       .  S
O447        C466   1.262       .  A
O448        C468   1.285       .  A
O448       Mg464   2.369       .  S
O450       Mg464   2.181       .  S
O450        C461   1.234       .  S
O451       Mg470   2.168       .  S
O452       Mg464   2.301       .  S
Mg453       O469   2.321       .  S
O454       Mg470   2.268       .  S
H455        C460   1.081       .  S
O456       Mg464   2.157       .  S
O456        C459   1.239       .  S
H457        C459   1.081       .  S
H458        C461   1.081       .  S
O463       Mg470   2.285       .  S
C466        O471   1.271       .  A
C466        C523   1.470       .  S
O467        C468   1.268       .  A
C468        C484   1.478       .  S
O471      Mg1615   2.293   1_455  S
C473        C474   1.418       .  A
C473        C478   1.406       .  A
C474        C475   1.410       .  A
C475        H480   1.085       .  S
C475        C476   1.409       .  A
C476        C987   1.475       .  S
C476        C477   1.415       .  A
C477        C478   1.405       .  A
C478        H479   1.085       .  S
C481        C482   1.405       .  A
C481        C486   1.405       .  A
C482        C483   1.407       .  A
C483        H488   1.085       .  S
C483       C1672   1.411   1_455  A
C484        C485   1.412       .  A
C484       C1671   1.410       .  A
C485       C1674   1.399       .  A
C486        H487   1.085   1_455  S
C486       C1673   1.399   1_455  A
C489        C490   1.416       .  A
C489        C494   1.405       .  A
C490        C491   1.413       .  A
C491        H496   1.085       .  S
C491        C492   1.405       .  A
C492        C493   1.419       .  A
C493        C494   1.414       .  A
C494        H495   1.085       .  S
C497        C498   1.422       .  A
C497       C1096   1.403       .  A
C498       C1093   1.404       .  A
C499        H504   1.085       .  S
C499        C500   1.401       .  A
C499       C1092   1.405   1_545  A
C500        C501   1.416       .  A
C501        C502   1.410       .  A
C502        H503   1.085       .  S
C502       C1091   1.401   1_545  A
C505        C567   1.479       .  S
C505        C510   1.403       .  A
C505       C1100   1.414   1_545  A
C506        C552   1.476   1_554  S
C506       C1099   1.413       .  A
C506       C1695   1.411   1_454  A
C507        C560   1.481   1_554  S
C507       C1694   1.410       .  A
C507       C1102   1.405       .  A
C508       C1158   1.486       .  S
C508       C1101   1.408   1_554  A
C508       C1697   1.398   1_565  A
C509       C1735   1.469       .  S
C509        C510   1.401   1_655  A
C509       C1696   1.399   1_545  A
C510        C556   1.480       .  S
C511        C591   1.478       .  S
C511        C512   1.401       .  A
C511        C516   1.400       .  A
C512        C572   1.471       .  S
C512        C513   1.408       .  A
C513        C579   1.480       .  S
C513        C514   1.403       .  A
C514        C588   1.483       .  S
C514        C515   1.416       .  A
C515        C576   1.480       .  S
C515        C516   1.414       .  A
C516        C584   1.475       .  S
C517        C528   1.483       .  S
C517        C518   1.407       .  A
C517        C522   1.409       .  A
C518        C532   1.478       .  S
C518        C519   1.410       .  A
C519        C543   1.482       .  S
C519        C520   1.410       .  A
C520        C524   1.484       .  S
C520        C521   1.406       .  A
C521        C535   1.476       .  S
C521        C522   1.409       .  A
C522        C539   1.481       .  S
C523        C524   1.339       .  D
C523        H525   1.086       .  S
C524        H526   1.087       .  S
C527        C528   1.339       .  D
C527        H529   1.086       .  S
C528        H530   1.087       .  S
C531        C532   1.343       .  D
C531        H533   1.088       .  S
C532        H534   1.087       .  S
C535        C536   1.343       .  D
C535        H537   1.087       .  S
C536        H538   1.088       .  S
C539        C540   1.347       .  D
C539        H541   1.087       .  S
C540        H542   1.087       .  S
C543        C544   1.347       .  D
C543        H545   1.087       .  S
C544        H546   1.087       .  S
C547       C1697   1.469       .  S
C547        C548   1.347   1_554  D
C547       H1737   1.088       .  S
C548        H550   1.087       .  S
H549       C1735   1.087       .  S
C551        C552   1.343   1_554  D
C551       H1741   1.087       .  S
C552        H554   1.087       .  S
H553       C1739   1.087       .  S
C555        C556   1.339       .  D
C555        H557   1.087   1_554  S
C556        H558   1.087       .  S
C559        C560   1.336       .  D
C559        H561   1.087   1_556  S
C560        H562   1.085       .  S
C563        C564   1.330       .  D
C563        H565   1.084   1_554  S
C564       C1102   1.477       .  S
C564       H1160   1.088       .  S
H566       C1158   1.088       .  S
C567        C568   1.343   1_554  D
C567        H569   1.087       .  S
C568       H1164   1.087       .  S
H570       C1162   1.088       .  S
C571        C572   1.338       .  D
C571        H573   1.087       .  S
C572        H574   1.086       .  S
C575        C576   1.329       .  D
C575        H577   1.087       .  S
C576        H578   1.086       .  S
C579        C580   1.342       .  D
C579        H581   1.086       .  S
C580        H582   1.089       .  S
C583        C584   1.337       .  D
C583        H585   1.086       .  S
C584        H586   1.088       .  S
C587        C588   1.333       .  D
C587        H589   1.081       .  S
C588        H590   1.087       .  S
C591        C592   1.345       .  D
C591        H593   1.087       .  S
C592        H594   1.087       .  S
O595       Mg597   2.165       .  S
O595       Mg603   2.154       .  S
O595        C630   1.231       .  S
C596        O609   1.236       .  S
C596        O633   1.269       .  A
C596        H635   1.081       .  S
Mg597       O626   2.138       .  S
Mg597       O641   2.260       .  S
Mg597       O637   2.241       .  S
Mg597       O608   2.295       .  S
O598       Mg640   2.146       .  S
O598       Mg623   2.165       .  S
O598        C619   1.239       .  S
O599        C630   1.264       .  A
O599       Mg623   2.291       .  S
C600        O602   1.278   1_655  A
C600       O1802   1.270       .  A
C600       C1840   1.479       .  S
O601        C629   1.275       .  A
O601       Mg603   2.321       .  S
O602       Mg634   2.311       .  S
Mg603       O609   2.121       .  S
Mg603       O617   2.221       .  S
Mg603       O605   2.297       .  S
C604        O642   1.264       .  A
C604        O610   1.264       .  A
C604       C1186   1.469       .  S
O605        C612   1.273       .  A
H606        C619   1.081       .  S
C607        O621   1.231       .  S
C607        O622   1.266       .  A
C607        H632   1.081       .  S
O608        C631   1.270       .  A
O609       Mg623   2.183       .  S
O610      Mg1828   2.267       .  S
C611        O624   1.268       .  A
C611        O616   1.276       .  A
C611       C1075   1.465       .  S
C612        O639   1.280       .  A
C612       C1083   1.490       .  S
Mg613       O620   2.135   1_655  S
Mg613       O621   2.159   1_655  S
Mg613      O1802   2.277       .  S
Mg613       O615   2.325   1_655  S
Mg613      O1830   2.243       .  S
O614       C1788   1.269       .  A
O614      Mg1801   2.273       .  S
O615        C619   1.276       .  A
O616       Mg623   2.315       .  S
O617        C636   1.262       .  A
O618        C638   1.279       .  A
O618       Mg634   2.340       .  S
O620       Mg634   2.191       .  S
O620        C631   1.237       .  S
O621       Mg640   2.173       .  S
O622       Mg634   2.299       .  S
Mg623       O639   2.327       .  S
O624       Mg640   2.234       .  S
H625        C630   1.081       .  S
O626       Mg634   2.152       .  S
O626        C629   1.239       .  S
H627        C629   1.081       .  S
H628        C631   1.081       .  S
O633       Mg640   2.293       .  S
C636        O641   1.265       .  A
C636       C1181   1.456       .  S
O637        C638   1.268       .  A
C638        C643   1.475       .  S
Mg640      O1798   2.264   1_455  S
O642      Mg1801   2.241       .  S
C643        C644   1.406       .  A
C643        C648   1.401       .  A
C644        C675   1.479       .  S
C644        C645   1.416       .  A
C645        H650   1.084       .  S
C645        C646   1.416       .  A
C646        C806   1.486       .  S
C646        C647   1.420       .  A
C647        C816   1.484       .  S
C647        C648   1.407       .  A
C648        H649   1.085       .  S
C651        C712   1.486       .  S
C651        C652   1.417       .  A
C651        C656   1.405       .  A
C652       C1788   1.477       .  S
C652        C653   1.410       .  A
C653        H658   1.085       .  S
C653        C654   1.410       .  A
C654        C864   1.473       .  S
C654        C655   1.417       .  A
C655        C768   1.490       .  S
C655        C656   1.404       .  A
C656        H657   1.086       .  S
O659       Mg661   2.181       .  S
O659       Mg667   2.160   1_455  S
O659        C694   1.228       .  S
C660        O673   1.235       .  S
C660        O697   1.267       .  A
C660        H699   1.080       .  S
Mg661       O690   2.142       .  S
Mg661      O1893   2.200   1_455  S
Mg661       O701   2.217       .  S
Mg661       O672   2.287       .  S
O662       Mg687   2.142       .  S
O662        C683   1.238       .  S
O663        C694   1.263       .  A
O663       Mg687   2.295       .  S
C664        O666   1.277       .  A
C664        O678   1.271       .  A
C664       C1092   1.466       .  S
O665        C693   1.275       .  A
O665       Mg667   2.327   1_455  S
O666       Mg698   2.279       .  S
Mg667       O673   2.134   1_655  S
Mg667      O1869   2.247       .  S
Mg667      O1857   2.291       .  S
C668        O706   1.264       .  A
C668        O674   1.256       .  A
C668       C1174   1.468       .  S
O669       C1864   1.274       .  A
O669      Mg1855   2.299       .  S
H670        C683   1.081       .  S
C671        O685   1.228       .  S
C671        O686   1.263       .  A
C671        H696   1.081   1_565  S
O672        C695   1.268       .  A
O673       Mg687   2.197       .  S
O674       Mg704   2.213       .  S
C675        O688   1.265       .  A
C676       O1857   1.273       .  A
C676        O703   1.279   1_655  A
C676       C1944   1.476       .  S
Mg677       O684   2.141       .  S
Mg677       O685   2.158       .  S
Mg677       O678   2.270       .  S
Mg677       O679   2.326       .  S
O679        C683   1.275       .  A
O680       Mg687   2.338       .  S
O681        C700   1.265       .  A
O681      Mg1855   2.249       .  S
O682        C702   1.279       .  A
O682       Mg698   2.347       .  S
O684       Mg698   2.205       .  S
O684        C695   1.235       .  S
O686       Mg698   2.297       .  S
Mg687       O703   2.294       .  S
O688       Mg704   2.218       .  S
H689        C694   1.081       .  S
O690       Mg698   2.129       .  S
O690        C693   1.239       .  S
H691        C693   1.081       .  S
H692        C695   1.081       .  S
C700        O705   1.250       .  A
C700       C1177   1.464       .  S
O701        C702   1.263       .  A
C702       C1076   1.480       .  S
O705      Mg1849   2.201       .  S
O707       Mg709   2.175       .  S
O707       Mg715   2.155       .  S
O707        C742   1.233       .  S
C708        O721   1.235       .  S
C708        O745   1.268       .  A
C708        H747   1.081       .  S
Mg709       O738   2.148       .  S
Mg709       O753   2.223       .  S
Mg709       O749   2.239       .  S
Mg709       O720   2.283       .  S
O710       Mg752   2.147       .  S
O710       Mg735   2.151       .  S
O710        C731   1.241       .  S
O711        C742   1.268       .  A
O711       Mg735   2.305       .  S
C712        O726   1.272       .  A
O713        C741   1.276       .  A
O713       Mg715   2.322       .  S
O714       Mg746   2.348       .  S
Mg715       O721   2.136       .  S
Mg715       O729   2.249       .  S
Mg715       O717   2.255       .  S
C716        O754   1.258       .  A
C716        O722   1.261       .  A
C716       C1165   1.449       .  S
O717        C724   1.268       .  A
H718        C731   1.081       .  S
C719        O733   1.234   1_545  S
C719        O734   1.269       .  A
O720        C743   1.267       .  A
O721       Mg735   2.191       .  S
C723        O736   1.272       .  A
C723        O728   1.288       .  A
C723       C1091   1.496       .  S
C724        O751   1.284       .  A
C724       C1084   1.488       .  S
Mg725       O732   2.109       .  S
Mg725       O733   2.159       .  S
Mg725       O727   2.325       .  S
O727        C731   1.277       .  A
O728       Mg735   2.400       .  S
O729        C748   1.260       .  A
O730        C750   1.284       .  A
O730       Mg746   2.364       .  S
O732       Mg746   2.179       .  S
O732        C743   1.235       .  S
O733       Mg752   2.188       .  S
O734       Mg746   2.306   1_545  S
Mg735       O751   2.352       .  S
O736       Mg752   2.274       .  S
H737        C742   1.079       .  S
O738       Mg746   2.145       .  S
O738        C741   1.240       .  S
H739        C741   1.080       .  S
H740        C743   1.081       .  S
O745       Mg752   2.290       .  S
C748        O753   1.261       .  A
C748       C1169   1.461       .  S
O749        C750   1.268       .  A
C750        C755   1.476       .  S
C755        C756   1.420       .  A
C755        C760   1.406       .  A
C756       C1864   1.477       .  S
C756        C757   1.398       .  A
C757        H762   1.086       .  S
C757        C758   1.399       .  A
C758        C902   1.467       .  S
C758        C759   1.409       .  A
C759        C854   1.467       .  S
C759        C760   1.403       .  A
C760        H761   1.085       .  S
O763       Mg765   2.168   1_566  S
O763       Mg771   2.145   1_565  S
O763        C798   1.233       .  S
C764        O801   1.270       .  A
C764        H803   1.081       .  S
Mg765       O776   2.291   1_545  S
O766       Mg791   2.140       .  S
O766        C787   1.241       .  S
O767        C798   1.269       .  A
O767       Mg791   2.303       .  S
C768        O770   1.284       .  A
C768        O782   1.276       .  A
O769        C797   1.276   1_556  A
O770       Mg802   2.344       .  S
Mg771       O777   2.135   1_545  S
Mg771       O773   2.301   1_545  S
C772        O810   1.269       .  A
C772        O778   1.256   1_554  A
C772       C1157   1.474       .  S
O773        C780   1.275       .  A
H774        C787   1.081       .  S
C775        O789   1.234       .  S
C775        O790   1.269       .  A
C775        H800   1.081   1_554  S
O776        C799   1.269       .  A
O777       Mg791   2.184       .  S
C779        O792   1.264       .  A
C779        O784   1.283       .  A
C779       C1068   1.476       .  S
C780        O807   1.278       .  A
C780        C964   1.484       .  S
Mg781       O788   2.140       .  S
Mg781       O789   2.129       .  S
Mg781       O782   2.301       .  S
O783        C787   1.277   1_554  A
O784       Mg791   2.378       .  S
O785        C804   1.265       .  A
O786        C806   1.288       .  A
O786       Mg802   2.400       .  S
O788       Mg802   2.185       .  S
O789       Mg808   2.164   1_554  S
O790       Mg802   2.307       .  S
Mg791       O807   2.312       .  S
H793        C798   1.079   1_554  S
O794       Mg802   2.163       .  S
O794        C797   1.240       .  S
H795        C797   1.081       .  S
H796        C799   1.081       .  S
O801       Mg808   2.289       .  S
C804        O809   1.267   1_556  A
C804       C1162   1.464       .  S
O805        C806   1.267       .  A
O811       Mg813   2.160   1_556  S
O811       Mg819   2.127       .  S
O811        C846   1.233       .  S
C812        O825   1.238       .  S
C812        O849   1.271       .  A
C812        H851   1.081       .  S
Mg813       O842   2.130       .  S
Mg813       O857   2.263       .  S
Mg813       O853   2.214       .  S
Mg813       O824   2.291       .  S
O814       Mg856   2.136       .  S
O814       Mg839   2.149       .  S
O814        C835   1.239   1_556  S
O815        C846   1.268       .  A
O815       Mg839   2.302       .  S
C816        O818   1.279       .  A
C816        O830   1.275       .  A
O817        C845   1.279       .  A
O817       Mg819   2.340       .  S
O818       Mg850   2.320       .  S
Mg819       O825   2.140       .  S
Mg819       O833   2.290       .  S
Mg819       O821   2.314       .  S
C820        O858   1.268       .  A
C820        O826   1.264   1_554  A
C820       C1149   1.462       .  S
O821        C828   1.277       .  A
H822        C835   1.081   1_556  S
C823        O837   1.233       .  S
C823        O838   1.267       .  A
C823        H848   1.081   1_554  S
O824        C847   1.271       .  A
O825       Mg839   2.190       .  S
O826       Mg856   2.272       .  S
C827        O840   1.263       .  A
C827        O832   1.283       .  A
C827        C955   1.473       .  S
C828        O855   1.280       .  A
C828       C1067   1.486       .  S
Mg829       O836   2.117       .  S
Mg829       O837   2.130       .  S
Mg829       O830   2.301       .  S
Mg829       O831   2.316       .  S
Mg829       O858   2.239       .  S
O831        C835   1.275       .  A
O832       Mg839   2.371       .  S
O833        C852   1.269       .  A
O834        C854   1.279       .  A
O834       Mg850   2.342       .  S
O836       Mg850   2.174       .  S
O836        C847   1.237       .  S
O837       Mg856   2.143   1_554  S
O838       Mg850   2.294       .  S
Mg839       O855   2.315       .  S
O840       Mg856   2.209       .  S
H841        C846   1.080   1_554  S
O842       Mg850   2.159       .  S
O842        C845   1.241   1_554  S
H843        C845   1.081   1_554  S
H844        C847   1.081       .  S
O849       Mg856   2.293       .  S
C852        O857   1.259   1_556  A
C852       C1153   1.471       .  S
O853        C854   1.265       .  A
O859       Mg861   2.150   1_556  S
O859      Mg2055   2.136       .  S
O859        C894   1.234       .  S
C860        O873   1.236       .  S
C860        O897   1.269       .  A
C860        H899   1.081       .  S
Mg861      O2078   2.138       .  S
Mg861       O905   2.286       .  S
Mg861       O901   2.228       .  S
Mg861       O872   2.293       .  S
O862      Mg2092   2.150       .  S
O862      Mg2075   2.147       .  S
O862        C883   1.238       .  S
O863        C894   1.268       .  A
O863      Mg2075   2.302       .  S
C864        O866   1.276       .  A
C864        O878   1.266       .  A
O865        C893   1.275       .  A
O865       Mg867   2.319   1_554  S
O866       Mg898   2.304       .  S
Mg867      O2047   2.137   1_455  S
Mg867       O873   2.139       .  S
Mg867       O881   2.242       .  S
Mg867       O869   2.262       .  S
C868        O906   1.262   1_556  A
C868       O2062   1.271       .  A
C868       C1142   1.456       .  S
O869        C876   1.268       .  A
H870        C883   1.081       .  S
C871        O885   1.232       .  S
C871        O886   1.266       .  A
C871        H896   1.082       .  S
O872        C895   1.269       .  A
O873       Mg887   2.181       .  S
O874       C2056   1.271       .  A
O874       Mg904   2.301   1_655  S
C875        O888   1.270       .  A
C875        O880   1.284       .  A
C875        C956   1.480       .  S
C876        O903   1.280       .  A
C876        C963   1.478       .  S
Mg877       O884   2.124       .  S
Mg877      O2073   2.154       .  S
Mg877       O878   2.252       .  S
Mg877       O879   2.304   1_554  S
Mg877       O906   2.199       .  S
O879        C883   1.272       .  A
O880       Mg887   2.366       .  S
O881        C900   1.264   1_556  A
O882        C902   1.277       .  A
O882       Mg898   2.323       .  S
O884       Mg898   2.185       .  S
O884        C895   1.236       .  S
O885      Mg2065   2.154   1_455  S
O885       Mg904   2.154   1_554  S
O886      Mg2086   2.293   1_455  S
Mg887      O2050   2.149   1_455  S
Mg887      O2051   2.304   1_455  S
Mg887       O903   2.322       .  S
O888       Mg904   2.247       .  S
H889        C894   1.082       .  S
O890      Mg2049   2.137   1_455  S
O890      Mg2086   2.143   1_455  S
O890        C893   1.239       .  S
H891        C893   1.081       .  S
H892        C895   1.081       .  S
O897       Mg904   2.294       .  S
Mg898      O2078   2.144       .  S
Mg898      O2074   2.291       .  S
C900       O2093   1.265       .  A
C900       C1145   1.457       .  S
O901        C902   1.267       .  A
Mg904      O2050   2.147   1_455  S
O905       C2088   1.266       .  A
O907       Mg909   2.170       .  S
O907       Mg915   2.144       .  S
O907        C942   1.233       .  S
C908        O921   1.237       .  S
C908        O945   1.270       .  A
C908        H947   1.081       .  S
Mg909       O938   2.147       .  S
Mg909       O949   2.238       .  S
Mg909       O920   2.290       .  S
O910       Mg952   2.125       .  S
O910       Mg935   2.135       .  S
O910        C931   1.240       .  S
O911        C942   1.269       .  A
O911       Mg935   2.304       .  S
C912        O914   1.282       .  A
C912        O926   1.275       .  A
C912       C1087   1.490       .  S
O913        C941   1.276       .  A
O913       Mg915   2.325       .  S
O914       Mg946   2.336       .  S
Mg915       O921   2.131       .  S
C916        O954   1.269       .  A
C916        O922   1.258       .  A
C916       C1134   1.468       .  S
O917        C924   1.275       .  A
H918        C931   1.081       .  S
C919        O933   1.233       .  S
C919        O934   1.268       .  A
C919        H944   1.079       .  S
O920        C943   1.268       .  A
O921       Mg935   2.181       .  S
O922       Mg952   2.249       .  S
C923        O936   1.264       .  A
C923        O928   1.283       .  A
C923        C959   1.474       .  S
C924        C966   1.488       .  S
Mg925       O932   2.138       .  S
Mg925       O933   2.130       .  S
Mg925       O926   2.292       .  S
Mg925       O927   2.324       .  S
Mg925       O954   2.272       .  S
O927        C931   1.276       .  A
O928       Mg935   2.374       .  S
O929        C948   1.265       .  A
O930        C950   1.284       .  A
O930       Mg946   2.369       .  S
O932       Mg946   2.186       .  S
O932        C943   1.235       .  S
O933       Mg952   2.157       .  S
O934       Mg946   2.297       .  S
Mg935       O951   2.308       .  S
O936       Mg952   2.211       .  S
H937        C942   1.079       .  S
O938       Mg946   2.166       .  S
O938        C941   1.240       .  S
H939        C941   1.081       .  S
H940        C943   1.081       .  S
O945       Mg952   2.291       .  S
C948        O953   1.266   1_565  A
C948       C1138   1.462       .  S
O949        C950   1.268       .  A
C950       C1094   1.478       .  S
C955        C956   1.414       .  A
C955        C960   1.411       .  A
C956        C957   1.401       .  A
C957        H962   1.086       .  S
C957        C958   1.404       .  A
C958        C988   1.481       .  S
C958        C959   1.415       .  A
C959        C960   1.411       .  A
C960        H961   1.085       .  S
C963        C964   1.416       .  A
C963        C968   1.412       .  A
C964        C965   1.401       .  A
C965        H970   1.086       .  S
C965        C966   1.402       .  A
C966        C967   1.418       .  A
C967       C2224   1.476       .  S
C967        C968   1.413       .  A
C968        H969   1.084       .  S
O971       Mg973   2.160       .  S
O971       Mg979   2.138       .  S
O971       C1006   1.234       .  S
C972        O985   1.236       .  S
C972       O1009   1.269       .  A
C972       H1011   1.081       .  S
Mg973      O1002   2.137       .  S
Mg973      O2205   2.264       .  S
Mg973      O1013   2.239       .  S
Mg973       O984   2.291       .  S
O974      Mg1016   2.145       .  S
O974       Mg999   2.139       .  S
O974        C995   1.238       .  S
O975       C1006   1.269       .  A
O975       Mg999   2.304       .  S
C976        O978   1.276       .  A
C976        O990   1.269       .  A
C976       C1095   1.471       .  S
O977       C1005   1.276       .  A
O977       Mg979   2.323       .  S
O978      Mg1010   2.303       .  S
Mg979       O985   2.131       .  S
Mg979      O2181   2.246       .  S
Mg979      O2169   2.289       .  S
C980       O1018   1.264       .  A
C980        O986   1.266       .  A
C980       C1125   1.458       .  S
O981        C988   1.273       .  A
O981      Mg2167   2.288   1_455  S
H982        C995   1.081       .  S
C983        O997   1.235       .  S
C983        O998   1.269       .  A
C983       H1008   1.080       .  S
O984       C1007   1.269       .  A
O985       Mg999   2.184       .  S
C987        O992   1.285       .  A
C988       O2203   1.280   1_455  A
Mg989       O996   2.126       .  S
Mg989       O997   2.138       .  S
Mg989       O990   2.262       .  S
Mg989       O991   2.307       .  S
O991        C995   1.273       .  A
O992       Mg999   2.376       .  S
O993       C1012   1.266       .  A
O993      Mg2167   2.267   1_455  S
O994       C1014   1.279       .  A
O994      Mg1010   2.347       .  S
O996      Mg1010   2.173       .  S
O996       C1007   1.235       .  S
O997      Mg1016   2.148       .  S
O998      Mg1010   2.300       .  S
Mg999      O1015   2.323       .  S
H1001      C1006   1.080       .  S
O1002     Mg1010   2.146       .  S
O1002      C1005   1.240       .  S
H1003      C1005   1.081       .  S
H1004      C1007   1.081       .  S
O1009     Mg1016   2.287       .  S
C1012      O1017   1.263       .  A
C1012      C1130   1.463       .  S
O1013      C1014   1.268       .  A
C1014      C1079   1.473       .  S
O1015      C2176   1.280       .  A
O1017     Mg2161   2.251   1_455  S
O1019     Mg1021   2.160       .  S
O1019     Mg2215   2.149       .  S
O1019      C1054   1.235       .  S
C1020      O1033   1.233       .  S
C1020      O1057   1.266       .  A
C1020      H1059   1.081       .  S
Mg1021     O1050   2.162       .  S
Mg1021     O2253   2.294       .  S
Mg1021     O1061   2.230       .  S
Mg1021     O1032   2.288       .  S
O1022     Mg1064   2.162       .  S
O1022     Mg1047   2.147       .  S
O1022      C1043   1.238       .  S
O1023      C1054   1.270       .  A
O1023     Mg1047   2.306       .  S
C1024      O1026   1.284       .  A
C1024      O1038   1.267       .  A
C1024      C1086   1.492       .  S
O1025      C1053   1.273       .  A
O1025     Mg2215   2.309       .  S
O1026     Mg1058   2.355       .  S
Mg1027     O2207   2.148   1_455  S
Mg1027     O2221   2.125   1_455  S
Mg1027     O2213   2.314   1_455  S
Mg1027     O1041   2.218       .  S
Mg1027     O1029   2.248       .  S
C1028      O1066   1.262       .  A
C1028      O1034   1.275       .  A
C1028      C1121   1.469       .  S
O1029      C2224   1.266       .  A
H1030      C1043   1.081       .  S
C1031      O1045   1.233       .  S
C1031      O1046   1.268       .  A
C1031      H1056   1.081       .  S
O1032      C1055   1.266       .  A
O1033     Mg2215   2.132       .  S
O1033     Mg1047   2.178       .  S
O1034     Mg1064   2.300       .  S
C1035      O1048   1.274       .  A
C1035      O1040   1.285       .  A
C1035      C1071   1.485       .  S
C1036      O2217   1.265       .  A
C1036      O1063   1.280       .  A
C1036      C2155   1.477       .  S
Mg1037     O1044   2.131       .  S
Mg1037     O1045   2.166       .  S
Mg1037     O1038   2.261       .  S
Mg1037     O1039   2.297       .  S
Mg1037     O1066   2.203       .  S
O1039      C1043   1.272       .  A
O1040     Mg1047   2.366       .  S
O1041      C1060   1.261       .  A
O1042      C1062   1.285       .  A
O1042     Mg1058   2.366       .  S
O1044     Mg1058   2.180       .  S
O1044      C1055   1.233       .  S
O1045     Mg1064   2.164       .  S
O1046     Mg1058   2.298       .  S
Mg1047     O1063   2.327       .  S
O1048     Mg1064   2.268       .  S
H1049      C1054   1.081       .  S
O1050     Mg1058   2.162       .  S
O1050      C1053   1.238       .  S
H1051      C1053   1.081       .  S
H1052      C1055   1.081       .  S
O1057     Mg1064   2.288       .  S
C1060      O1065   1.271       .  A
C1060      C1117   1.469       .  S
O1061      C1062   1.268       .  A
C1062      C1078   1.477       .  S
O1065     Mg2209   2.292   1_455  S
C1067      C1068   1.418       .  A
C1067      C1072   1.406       .  A
C1068      C1069   1.410       .  A
C1069      H1074   1.085       .  S
C1069      C1070   1.410       .  A
C1070      C1071   1.414       .  A
C1071      C1072   1.402       .  A
C1072      H1073   1.085       .  S
C1075      C1076   1.407       .  A
C1075      C1080   1.405       .  A
C1076      C1077   1.410       .  A
C1077      H1082   1.085       .  S
C1077      C2266   1.412   1_455  A
C1078      C2265   1.410       .  A
C1078      C1079   1.410       .  A
C1079      C2268   1.402       .  A
C1080      H1081   1.085   1_455  S
C1080      C2267   1.402   1_455  A
C1083      C1084   1.418       .  A
C1083      C1088   1.406       .  A
C1084      C1085   1.417       .  A
C1085      H1090   1.085       .  S
C1085      C1086   1.407       .  A
C1086      C1087   1.421       .  A
C1087      C1088   1.416       .  A
C1088      H1089   1.085       .  S
C1091      C1092   1.421       .  A
C1093      H1098   1.086       .  S
C1093      C1094   1.399       .  A
C1094      C1095   1.415       .  A
C1095      C1096   1.412       .  A
C1096      H1097   1.085       .  S
C1099      C1161   1.478       .  S
C1099      C1104   1.405       .  A
C1100      C1146   1.474   1_554  S
C1100      C2289   1.413   1_454  A
C1101      C1154   1.480       .  S
C1101      C2288   1.413   1_556  A
C1102      C2291   1.397       .  A
C1103      C2329   1.470       .  S
C1103      C2290   1.395       .  A
C1103      C1104   1.400   1_655  A
C1104      C1150   1.475       .  S
C1105      C1185   1.477       .  S
C1105      C1106   1.399       .  A
C1105      C1110   1.400       .  A
C1106      C1166   1.469       .  S
C1106      C1107   1.407       .  A
C1107      C1173   1.482       .  S
C1107      C1108   1.406       .  A
C1108      C1182   1.482       .  S
C1108      C1109   1.416       .  A
C1109      C1170   1.483       .  S
C1109      C1110   1.415       .  A
C1110      C1178   1.470       .  S
C1111      C1122   1.493       .  S
C1111      C1112   1.405       .  A
C1111      C1116   1.409       .  A
C1112      C1126   1.473       .  S
C1112      C1113   1.410       .  A
C1113      C1137   1.479       .  S
C1113      C1114   1.411       .  A
C1114      C1118   1.484       .  S
C1114      C1115   1.404       .  A
C1115      C1129   1.476       .  S
C1115      C1116   1.401       .  A
C1116      C1133   1.469       .  S
C1117      C1118   1.338       .  D
C1117      H1119   1.085       .  S
C1118      H1120   1.087       .  S
C1121      C1122   1.338       .  D
C1121      H1123   1.079       .  S
C1122      H1124   1.087       .  S
C1125      C1126   1.341       .  D
C1125      H1127   1.088       .  S
C1126      H1128   1.087       .  S
C1129      C1130   1.346       .  D
C1129      H1131   1.087       .  S
C1130      H1132   1.088       .  S
C1133      C1134   1.333       .  D
C1133      H1135   1.087       .  S
C1134      H1136   1.087       .  S
C1137      C1138   1.345       .  D
C1137      H1139   1.087       .  S
C1138      H1140   1.087       .  S
C1141      C2291   1.471       .  S
C1141      C1142   1.348   1_554  D
C1141      H2331   1.088       .  S
C1142      H1144   1.087       .  S
H1143      C2329   1.088       .  S
C1145      C1146   1.342   1_554  D
C1145      H2335   1.087       .  S
C1146      H1148   1.088       .  S
H1147      C2333   1.087       .  S
C1149      C1150   1.337       .  D
C1149      H1151   1.086   1_554  S
C1150      H1152   1.087       .  S
C1153      C1154   1.337       .  D
C1153      H1155   1.087   1_556  S
C1154      H1156   1.085       .  S
C1157      C1158   1.334       .  D
C1157      H1159   1.083   1_554  S
C1161      C1162   1.343   1_554  D
C1161      H1163   1.087       .  S
C1165      C1166   1.336       .  D
C1165      H1167   1.087       .  S
C1166      H1168   1.086       .  S
C1169      C1170   1.345       .  D
C1169      H1171   1.087       .  S
C1170      H1172   1.086       .  S
C1173      C1174   1.342       .  D
C1173      H1175   1.086       .  S
C1174      H1176   1.089       .  S
C1177      C1178   1.338       .  D
C1177      H1179   1.086       .  S
C1178      H1180   1.087       .  S
C1181      C1182   1.339       .  D
C1181      H1183   1.080       .  S
C1182      H1184   1.087       .  S
C1185      C1186   1.345       .  D
C1185      H1187   1.087       .  S
C1186      H1188   1.086       .  S
O1189     Mg1191   2.162       .  S
O1189     Mg1197   2.163       .  S
O1189      C1224   1.231       .  S
C1190      O1203   1.235       .  S
C1190      O1227   1.268       .  A
C1190      H1229   1.081       .  S
Mg1191     O1220   2.139       .  S
Mg1191     O1235   2.254       .  S
Mg1191     O1231   2.242       .  S
Mg1191     O1202   2.297       .  S
O1192     Mg1234   2.147       .  S
O1192     Mg1217   2.163       .  S
O1192      C1213   1.239       .  S
O1193      C1224   1.264       .  A
O1193     Mg1217   2.286       .  S
C1194      O1196   1.278       .  A
O1195      C1223   1.275       .  A
O1195     Mg1197   2.320       .  S
O1196     Mg1228   2.309       .  S
Mg1197     O1203   2.107       .  S
Mg1197     O1211   2.195       .  S
Mg1197     O1199   2.289       .  S
C1198      O1236   1.264       .  A
C1198      O1204   1.263       .  A
C1198      C1780   1.467       .  S
O1199      C1206   1.271       .  A
H1200      C1213   1.081       .  S
C1201      O1215   1.231       .  S
C1201      O1216   1.266       .  A
C1201      H1226   1.081       .  S
O1202      C1225   1.270       .  A
O1203     Mg1217   2.184       .  S
C1205      O1218   1.267       .  A
C1205      O1210   1.275       .  A
C1205      C1669   1.457       .  S
C1206      O1233   1.280       .  A
C1206      C1677   1.492       .  S
Mg1207     O1214   2.140       .  S
Mg1207     O1215   2.157       .  S
Mg1207     O1209   2.326       .  S
O1209      C1213   1.276       .  A
O1210     Mg1217   2.301       .  S
O1211      C1230   1.259       .  A
O1212      C1232   1.280       .  A
O1212     Mg1228   2.351       .  S
O1214     Mg1228   2.192       .  S
O1214      C1225   1.237       .  S
O1215     Mg1234   2.169       .  S
O1216     Mg1228   2.301       .  S
Mg1217     O1233   2.330       .  S
O1218     Mg1234   2.222       .  S
H1219      C1224   1.081       .  S
O1220     Mg1228   2.150       .  S
O1220      C1223   1.240       .  S
H1221      C1223   1.081       .  S
H1222      C1225   1.081       .  S
O1227     Mg1234   2.287       .  S
C1230      O1235   1.265       .  A
C1230      C1775   1.450       .  S
O1231      C1232   1.268       .  A
C1232      C1237   1.479       .  S
C1237      C1238   1.406       .  A
C1237      C1242   1.402       .  A
C1238      C1269   1.477       .  S
C1238      C1239   1.417       .  A
C1239      H1244   1.084       .  S
C1239      C1240   1.416       .  A
C1240      C1400   1.492       .  S
C1240      C1241   1.423       .  A
C1241      C1410   1.484       .  S
C1241      C1242   1.409       .  A
C1242      H1243   1.086       .  S
C1245      C1306   1.491       .  S
C1245      C1246   1.417       .  A
C1245      C1250   1.407       .  A
C1246      C1247   1.412       .  A
C1247      H1252   1.085       .  S
C1247      C1248   1.412       .  A
C1248      C1458   1.479       .  S
C1248      C1249   1.418       .  A
C1249      C1362   1.494       .  S
C1249      C1250   1.408       .  A
C1250      H1251   1.086       .  S
O1253     Mg1255   2.179       .  S
O1253     Mg1261   2.146       .  S
O1253      C1288   1.229       .  S
C1254      O1267   1.234       .  S
C1254      O1291   1.267       .  A
C1254      H1293   1.081       .  S
Mg1255     O1284   2.132       .  S
Mg1255     O1295   2.213       .  S
Mg1255     O1266   2.292       .  S
O1256     Mg1892   2.148       .  S
O1256     Mg1281   2.133       .  S
O1256      C1277   1.237       .  S
O1257      C1288   1.263       .  A
O1257     Mg1281   2.296       .  S
C1258      O1260   1.276       .  A
C1258      O1272   1.270       .  A
C1258      C1686   1.463       .  S
O1259      C1287   1.276       .  A
O1259     Mg1261   2.329       .  S
O1260     Mg1292   2.271       .  S
Mg1261     O1267   2.130       .  S
C1262      O1300   1.263       .  A
C1262      O1268   1.256       .  A
C1262      C1768   1.465       .  S
H1264      C1277   1.081       .  S
C1265      O1279   1.228       .  S
C1265      O1280   1.263       .  A
C1265      H1290   1.081       .  S
O1266      C1289   1.269       .  A
O1267     Mg1281   2.191       .  S
O1268     Mg1298   2.214       .  S
C1269      O1282   1.264       .  A
C1269      O1868   1.279   1_545  A
C1270      O1297   1.278       .  A
Mg1271     O1278   2.149       .  S
Mg1271     O1279   2.163       .  S
Mg1271     O1272   2.268       .  S
Mg1271     O1273   2.322       .  S
Mg1271     O1894   2.267       .  S
O1273      C1277   1.274       .  A
O1274      C1863   1.278       .  A
O1274     Mg1281   2.334       .  S
O1275      C1294   1.265       .  A
O1276      C1296   1.279       .  A
O1276     Mg1292   2.347       .  S
O1278     Mg1292   2.205       .  S
O1278      C1289   1.236       .  S
O1279     Mg1892   2.182       .  S
O1280     Mg1292   2.299       .  S
Mg1281     O1297   2.285       .  S
O1282     Mg1298   2.215       .  S
H1283      C1288   1.081       .  S
O1284     Mg1292   2.122       .  S
O1284      C1287   1.239       .  S
H1285      C1287   1.081       .  S
H1286      C1289   1.081       .  S
O1291     Mg1892   2.284       .  S
C1294      O1299   1.249       .  A
C1294      C1771   1.460       .  S
O1295      C1296   1.262       .  A
C1296      C1670   1.479       .  S
Mg1298     O1850   2.147   1_545  S
Mg1298     O1873   2.177   1_545  S
Mg1298     O1885   2.286   1_545  S
O1300     Mg1865   2.259   1_545  S
O1301     Mg1303   2.184       .  S
O1301     Mg1309   2.151       .  S
O1301      C1336   1.233       .  S
C1302      O1315   1.236       .  S
C1302      O1339   1.270       .  A
C1302      H1341   1.081       .  S
Mg1303     O1332   2.132       .  S
Mg1303     O1347   2.178       .  S
Mg1303     O1343   2.228       .  S
Mg1303     O1314   2.281       .  S
O1304     Mg1346   2.144       .  S
O1304     Mg1329   2.157       .  S
O1304      C1325   1.241       .  S
O1305      C1336   1.269       .  A
O1305     Mg1329   2.311       .  S
C1306      O1902   1.281   1_545  A
C1306      O1320   1.269       .  A
O1307      C1335   1.280       .  A
O1307     Mg1309   2.344       .  S
O1308      C1900   1.280       .  A
O1308     Mg1340   2.327       .  S
Mg1309     O1315   2.155       .  S
Mg1309     O1323   2.323       .  S
Mg1309     O1311   2.281       .  S
C1310      O1348   1.258       .  A
C1310      O1316   1.262       .  A
C1310      C1759   1.450       .  S
O1311      C1318   1.272       .  A
H1312      C1325   1.081       .  S
C1313      O1327   1.233       .  S
C1313      O1328   1.268       .  A
C1313      H1932   1.080       .  S
O1314      C1337   1.267       .  A
O1315     Mg1329   2.188       .  S
O1316     Mg1940   2.236   1_545  S
C1317      O1330   1.272       .  A
C1317      O1322   1.291       .  A
C1317      C1685   1.502       .  S
C1318      O1345   1.285       .  A
C1318      C1678   1.487       .  S
Mg1319     O1326   2.104       .  S
Mg1319     O1327   2.161       .  S
Mg1319     O1914   2.290       .  S
Mg1319     O1321   2.327       .  S
Mg1319     O1942   2.193       .  S
O1320     Mg1913   2.277   1_545  S
O1321      C1325   1.277       .  A
O1322     Mg1329   2.422       .  S
O1323      C1342   1.263       .  A
O1324      C1344   1.284       .  A
O1324     Mg1340   2.376       .  S
O1326     Mg1340   2.182       .  S
O1326      C1337   1.235       .  S
O1327     Mg1346   2.191       .  S
O1328     Mg1340   2.305       .  S
Mg1329     O1345   2.346       .  S
O1330     Mg1346   2.274       .  S
H1331      C1336   1.080       .  S
O1332     Mg1340   2.130       .  S
O1332      C1335   1.243       .  S
H1333      C1335   1.081       .  S
H1334      C1337   1.081       .  S
H1338      C1907   1.080       .  S
O1339     Mg1346   2.296       .  S
C1342      O1347   1.247       .  A
C1342      C1763   1.469       .  S
O1343      C1344   1.265       .  A
C1344      C1349   1.478       .  S
Mg1346     O1910   2.238       .  S
O1348     Mg1913   2.202   1_545  S
C1349      C1350   1.419       .  A
C1349      C1354   1.407       .  A
C1350      C1351   1.398       .  A
C1351      H1356   1.086       .  S
C1351      C1352   1.399       .  A
C1352      C1496   1.469       .  S
C1352      C1353   1.410       .  A
C1353      C1448   1.469       .  S
C1353      C1354   1.405       .  A
C1354      H1355   1.085       .  S
O1357     Mg1359   2.168   1_556  S
O1357     Mg1365   2.144       .  S
O1357      C1392   1.233       .  S
C1358      O1965   1.237   1_545  S
C1358      O1395   1.270       .  A
C1358      H1397   1.081       .  S
Mg1359     O1982   2.149       .  S
Mg1359     O1997   2.266       .  S
Mg1359     O1993   2.240       .  S
Mg1359     O1370   2.290       .  S
O1360     Mg1996   2.131       .  S
O1360     Mg1385   2.139       .  S
O1360      C1381   1.241       .  S
O1361      C1392   1.268       .  A
O1361     Mg1385   2.303       .  S
C1362      O1364   1.286       .  A
C1362      O1376   1.275       .  A
O1363      C1391   1.275   1_556  A
O1363     Mg1959   2.320       .  S
O1364     Mg1396   2.357       .  S
Mg1365     O1371   2.133       .  S
Mg1365     O1957   2.321       .  S
Mg1365     O1973   2.248       .  S
Mg1365     O1367   2.304       .  S
C1366      O1404   1.270       .  A
C1366      O1372   1.255   1_554  A
C1366      C1751   1.469       .  S
O1367      C1374   1.276       .  A
H1368      C1381   1.081       .  S
C1369      O1383   1.234       .  S
C1369      O1384   1.269       .  A
C1369      H1394   1.081   1_554  S
O1370      C1393   1.269       .  A
O1371     Mg1385   2.187       .  S
O1371      C1952   1.237       .  S
O1372     Mg1996   2.235       .  S
C1373      O1386   1.264       .  A
C1373      O1378   1.285       .  A
C1373      C1662   1.481       .  S
C1374      O1401   1.279       .  A
C1374      C1558   1.484       .  S
Mg1375     O1382   2.147   1_565  S
Mg1375     O1383   2.132   1_565  S
Mg1375     O1376   2.293   1_565  S
Mg1375     O1971   2.331       .  S
Mg1375     O1998   2.288       .  S
O1377      C1381   1.278   1_554  A
O1377     Mg1969   2.331       .  S
O1378     Mg1385   2.389       .  S
O1379      C1398   1.265       .  A
O1379     Mg1959   2.243       .  S
O1380      C1400   1.290       .  A
O1380     Mg1396   2.411       .  S
O1382     Mg1396   2.191       .  S
O1382      C1987   1.235   1_545  S
O1383     Mg1402   2.167   1_544  S
O1384     Mg1396   2.307       .  S
Mg1385     O1401   2.314       .  S
O1386     Mg1996   2.220       .  S
H1387      C1392   1.080   1_554  S
O1388     Mg1953   2.153       .  S
O1388     Mg1396   2.167       .  S
O1388      C1391   1.240       .  S
H1389      C1391   1.081       .  S
H1390      C1393   1.081       .  S
C1393      O1976   1.236       .  S
O1395     Mg1402   2.291   1_545  S
C1398      O1403   1.268   1_556  A
C1398      C1756   1.466       .  S
O1399      C1400   1.269       .  A
O1399     Mg1953   2.248       .  S
Mg1402     O1954   2.129       .  S
Mg1402     O1966   2.235       .  S
Mg1402     O1980   2.216       .  S
O1403     Mg1953   2.272       .  S
O1404     Mg1969   2.288       .  S
O1405     Mg1407   2.166   1_556  S
O1405     Mg1413   2.128       .  S
O1405      C1440   1.233       .  S
C1406      O1419   1.239       .  S
C1406      O1443   1.272       .  A
C1406      H1445   1.081       .  S
Mg1407     O1436   2.128       .  S
Mg1407     O1451   2.260       .  S
Mg1407     O1447   2.221       .  S
Mg1407     O1418   2.290       .  S
O1408     Mg1450   2.130       .  S
O1408     Mg1433   2.154       .  S
O1408      C1429   1.240   1_556  S
O1409      C1440   1.269       .  A
O1409     Mg1433   2.305       .  S
C1410      O1412   1.279       .  A
C1410      O1424   1.276       .  A
O1411      C1439   1.278       .  A
O1411     Mg1413   2.339       .  S
O1412     Mg1444   2.320       .  S
Mg1413     O1419   2.143       .  S
Mg1413     O1427   2.294       .  S
Mg1413     O1415   2.323       .  S
C1414      O1452   1.268       .  A
C1414      O1420   1.263   1_554  A
C1414      C1743   1.466       .  S
O1415      C1422   1.278       .  A
H1416      C1429   1.081   1_556  S
C1417      O1431   1.233       .  S
C1417      O1432   1.267       .  A
C1417      H1442   1.081   1_554  S
O1418      C1441   1.271       .  A
O1419     Mg1433   2.185       .  S
O1420     Mg1450   2.276       .  S
C1421      O1434   1.264       .  A
C1421      O1426   1.284       .  A
C1421      C1549   1.477       .  S
C1422      O1449   1.281       .  A
C1422      C1661   1.489       .  S
Mg1423     O1430   2.119       .  S
Mg1423     O1431   2.127       .  S
Mg1423     O1424   2.305       .  S
Mg1423     O1425   2.324       .  S
Mg1423     O1452   2.249       .  S
O1425      C1429   1.276       .  A
O1426     Mg1433   2.381       .  S
O1427      C1446   1.270       .  A
O1428      C1448   1.279       .  A
O1428     Mg1444   2.347       .  S
O1430     Mg1444   2.178       .  S
O1430      C1441   1.238       .  S
O1431     Mg1450   2.148   1_554  S
O1432     Mg1444   2.294       .  S
Mg1433     O1449   2.321       .  S
O1434     Mg1450   2.215       .  S
H1435      C1440   1.080   1_554  S
O1436     Mg1444   2.152       .  S
O1436      C1439   1.241   1_554  S
H1437      C1439   1.081   1_554  S
H1438      C1441   1.081       .  S
O1443     Mg1450   2.297       .  S
C1446      O1451   1.258   1_556  A
C1446      C1747   1.470       .  S
O1447      C1448   1.265       .  A
O1453     Mg1455   2.155   1_556  S
O1453      C1488   1.233       .  S
C1454      O1467   1.236       .  S
C1454      O1491   1.270       .  A
C1454      H1493   1.081       .  S
Mg1455     O1499   2.286   1_655  S
Mg1455     O1495   2.232       .  S
Mg1455     O1466   2.290       .  S
O1456      C1477   1.239       .  S
O1457      C1488   1.268       .  A
C1458      O1460   1.278       .  A
C1458      O1472   1.268       .  A
O1459      C1487   1.275       .  A
O1459     Mg1461   2.320   1_554  S
O1460     Mg1492   2.315       .  S
Mg1461     O1467   2.140       .  S
Mg1461     O1475   2.247       .  S
Mg1461     O1463   2.269       .  S
C1462      O1500   1.261   1_556  A
C1462      C1736   1.456       .  S
O1463      C1470   1.269       .  A
H1464      C1477   1.081       .  S
C1465      O1479   1.232       .  S
C1465      O1480   1.265       .  A
C1465      H1490   1.082       .  S
O1466      C1489   1.269       .  A
O1467     Mg1481   2.182       .  S
O1468     Mg1498   2.294       .  S
C1469      O1482   1.270       .  A
C1469      O1474   1.283       .  A
C1469      C1550   1.480       .  S
C1470      O1497   1.280       .  A
C1470      C1557   1.478       .  S
Mg1471     O1478   2.120       .  S
Mg1471     O1472   2.265       .  S
Mg1471     O1473   2.314   1_554  S
Mg1471     O1500   2.201       .  S
O1473      C1477   1.274       .  A
O1474     Mg1481   2.365       .  S
O1475      C1494   1.264   1_556  A
O1476      C1496   1.278       .  A
O1476     Mg1492   2.327       .  S
O1478     Mg1492   2.187       .  S
O1478      C1489   1.236       .  S
O1479     Mg1498   2.155   1_554  S
Mg1481     O1497   2.317       .  S
O1482     Mg1498   2.246       .  S
H1483      C1488   1.081       .  S
O1484      C1487   1.239       .  S
H1485      C1487   1.081       .  S
H1486      C1489   1.081       .  S
O1491     Mg1498   2.294       .  S
C1494      C1739   1.459       .  S
O1495      C1496   1.267       .  A
O1501     Mg1503   2.170       .  S
O1501     Mg1509   2.145       .  S
O1501      C1536   1.234   1_545  S
C1502      O1515   1.237       .  S
C1502      O1539   1.270       .  A
C1502      H1541   1.081       .  S
Mg1503     O1532   2.145       .  S
Mg1503     O2141   2.267   1_545  S
Mg1503     O1543   2.244       .  S
Mg1503     O1514   2.290       .  S
O1504     Mg1546   2.122       .  S
O1504     Mg1529   2.131       .  S
O1504      C1525   1.241       .  S
O1505      C1536   1.270       .  A
O1505     Mg1529   2.304   1_565  S
C1506      O1508   1.281       .  A
C1506      O1520   1.275       .  A
C1506      C1681   1.489       .  S
O1507      C1535   1.276       .  A
O1507     Mg1509   2.321       .  S
O1508     Mg1540   2.331       .  S
Mg1509     O1515   2.130       .  S
Mg1509     O2117   2.251   1_545  S
Mg1509     O2105   2.305   1_545  S
C1510      O1548   1.269       .  A
C1510      O1516   1.257       .  A
C1510      C1728   1.467       .  S
O1511      C1518   1.275       .  A
O1511     Mg2103   2.301       .  S
H1512      C1525   1.081       .  S
C1513      O1527   1.233       .  S
C1513      O1528   1.268       .  A
C1513      H1538   1.079       .  S
O1514      C1537   1.268       .  A
O1515     Mg1529   2.179       .  S
O1516     Mg1546   2.246       .  S
C1517      O1530   1.265       .  A
C1517      O1522   1.283       .  A
C1517      C1553   1.476       .  S
C1518      O2139   1.278       .  A
C1518      C1560   1.487       .  S
Mg1519     O1526   2.136       .  S
Mg1519     O1527   2.131       .  S
Mg1519     O1520   2.294       .  S
Mg1519     O1521   2.326       .  S
Mg1519     O1548   2.270       .  S
O1521      C1525   1.277       .  A
O1522     Mg1529   2.376       .  S
O1523      C1542   1.266       .  A
O1523     Mg2103   2.254       .  S
O1524      C1544   1.283       .  A
O1524     Mg1540   2.367       .  S
O1526     Mg1540   2.187       .  S
O1526      C1537   1.235       .  S
O1527     Mg1546   2.161       .  S
O1528     Mg1540   2.298       .  S
Mg1529     O1545   2.309   1_545  S
O1530     Mg1546   2.222       .  S
H1531      C1536   1.078       .  S
O1532     Mg1540   2.158       .  S
O1532      C1535   1.240       .  S
H1533      C1535   1.081       .  S
H1534      C1537   1.081       .  S
O1539     Mg1546   2.290       .  S
C1542      O1547   1.267       .  A
C1542      C1732   1.465       .  S
O1543      C1544   1.269       .  A
C1544      C1688   1.478       .  S
O1545      C2112   1.277       .  A
O1547     Mg2097   2.267       .  S
C1549      C1550   1.415       .  A
C1549      C1554   1.413       .  A
C1550      C1551   1.401       .  A
C1551      H1556   1.086       .  S
C1551      C1552   1.403       .  A
C1552      C1582   1.481       .  S
C1552      C1553   1.415       .  A
C1553      C1554   1.413       .  A
C1554      H1555   1.084       .  S
C1557      C1558   1.416       .  A
C1557      C1562   1.413       .  A
C1558      C1559   1.401       .  A
C1559      H1564   1.086       .  S
C1559      C1560   1.402       .  A
C1560      C1561   1.418       .  A
C1561      C1562   1.413       .  A
C1562      H1563   1.084       .  S
O1565     Mg1567   2.160       .  S
O1565     Mg1573   2.136       .  S
O1565      C1600   1.234   1_655  S
C1566      O1579   1.236       .  S
C1566      O1603   1.269       .  A
C1566      H1605   1.081       .  S
Mg1567     O1596   2.141       .  S
Mg1567     O1607   2.237       .  S
Mg1567     O1578   2.289       .  S
O1568     Mg1610   2.148       .  S
O1568     Mg1593   2.148       .  S
O1568      C1589   1.239       .  S
O1569      C1600   1.269   1_655  A
O1569     Mg1593   2.305       .  S
C1570      O1572   1.276       .  A
C1570      O1584   1.272       .  A
C1570      C1689   1.471       .  S
O1571      C1599   1.275       .  A
O1571     Mg1573   2.316       .  S
O1572     Mg1604   2.297       .  S
Mg1573     O1579   2.130       .  S
C1574      O1612   1.264       .  A
C1574      O1580   1.266       .  A
C1574      C1719   1.459       .  S
O1575      C1582   1.273       .  A
H1576      C1589   1.081   1_565  S
C1577      O1591   1.234       .  S
C1577      O1592   1.268       .  A
C1577      H1602   1.081       .  S
O1578      C1601   1.268       .  A
O1579     Mg1593   2.178       .  S
O1580     Mg2204   2.260       .  S
C1581      O2188   1.265       .  A
C1581      O1586   1.284   1_565  A
C1581      C2258   1.473       .  S
Mg1583     O1590   2.127       .  S
Mg1583     O1591   2.134       .  S
Mg1583     O1584   2.278       .  S
Mg1583     O1585   2.316       .  S
Mg1583     O2206   2.246   1_545  S
O1585      C1589   1.275       .  A
O1586     Mg1593   2.371       .  S
O1587      C1606   1.265       .  A
O1588      C1608   1.280       .  A
O1588     Mg1604   2.351       .  S
O1590     Mg1604   2.180       .  S
O1590      C1601   1.235       .  S
O1591     Mg1610   2.147       .  S
O1592     Mg1604   2.299       .  S
Mg1593     O1609   2.328       .  S
O1594      C2175   1.265       .  A
O1594     Mg2204   2.215       .  S
H1595      C1600   1.081       .  S
O1596     Mg1604   2.141       .  S
O1596      C1599   1.239       .  S
H1597      C1599   1.081       .  S
H1598      C1601   1.081       .  S
O1603     Mg1610   2.287       .  S
C1606      O1611   1.262       .  A
C1606      C1724   1.463       .  S
O1607      C1608   1.267       .  A
C1608      C1673   1.475       .  S
Mg1610     O2174   2.263   1_545  S
Mg1610     O2188   2.214   1_545  S
O1612     Mg2177   2.235       .  S
O1613     Mg1615   2.157       .  S
O1613      C1648   1.235       .  S
C1614      O1627   1.234       .  S
C1614      O1651   1.267       .  A
C1614      H1653   1.081       .  S
Mg1615     O1644   2.159       .  S
Mg1615     O1655   2.230       .  S
Mg1615     O1626   2.287       .  S
O1616     Mg1658   2.160       .  S
O1616     Mg1641   2.149       .  S
O1616      C1637   1.238       .  S
O1617      C1648   1.270       .  A
O1617     Mg1641   2.305       .  S
C1618      O1620   1.284       .  A
C1618      O1632   1.268       .  A
C1618      C1680   1.494       .  S
O1619      C1647   1.274       .  A
O1620     Mg1652   2.359       .  S
Mg1621     O1635   2.218       .  S
Mg1621     O1623   2.253       .  S
C1622      O1660   1.262       .  A
C1622      O1628   1.275       .  A
C1622      C1715   1.470       .  S
H1624      C1637   1.081       .  S
C1625      O1639   1.234       .  S
C1625      O1640   1.268       .  A
C1625      H1650   1.081       .  S
O1626      C1649   1.267       .  A
O1627     Mg1641   2.179       .  S
O1628     Mg1658   2.301       .  S
C1629      O1642   1.274       .  A
C1629      O1634   1.285       .  A
C1629      C1665   1.488       .  S
C1630      O1657   1.280   1_455  A
Mg1631     O1638   2.129       .  S
Mg1631     O1639   2.165       .  S
Mg1631     O1632   2.266       .  S
Mg1631     O1633   2.299       .  S
Mg1631     O1660   2.203       .  S
O1633      C1637   1.272       .  A
O1634     Mg1641   2.372       .  S
O1635      C1654   1.261       .  A
O1636      C1656   1.285       .  A
O1636     Mg1652   2.365       .  S
O1638     Mg1652   2.178       .  S
O1638      C1649   1.234       .  S
O1639     Mg1658   2.169       .  S
O1640     Mg1652   2.299       .  S
Mg1641     O1657   2.324       .  S
O1642     Mg1658   2.275       .  S
H1643      C1648   1.081       .  S
O1644     Mg1652   2.162       .  S
O1644      C1647   1.239       .  S
H1645      C1647   1.081       .  S
H1646      C1649   1.081       .  S
O1651     Mg1658   2.289       .  S
C1654      O1659   1.270       .  A
C1654      C1711   1.467       .  S
O1655      C1656   1.268       .  A
C1656      C1672   1.475       .  S
C1661      C1662   1.421       .  A
C1661      C1666   1.408       .  A
C1662      C1663   1.411       .  A
C1663      H1668   1.085       .  S
C1663      C1664   1.411       .  A
C1664      C2175   1.475       .  S
C1664      C1665   1.415       .  A
C1665      C1666   1.404       .  A
C1666      H1667   1.085       .  S
C1669      C1670   1.405       .  A
C1669      C1674   1.402       .  A
C1670      C1671   1.408       .  A
C1671      H1676   1.085       .  S
C1672      C1673   1.413       .  A
C1674      H1675   1.085       .  S
C1677      C1678   1.418       .  A
C1677      C1682   1.405       .  A
C1678      C1679   1.417       .  A
C1679      H1684   1.085       .  S
C1679      C1680   1.408       .  A
C1680      C1681   1.422       .  A
C1681      C1682   1.416       .  A
C1682      H1683   1.085       .  S
C1685      C1686   1.423       .  A
C1685      C2284   1.402       .  A
C1686      C2281   1.406       .  A
C1687      H1692   1.085       .  S
C1687      C2280   1.404   1_545  A
C1687      C1688   1.401       .  A
C1688      C1689   1.415       .  A
C1689      C1690   1.409       .  A
C1690      H1691   1.085       .  S
C1690      C2279   1.401   1_545  A
C1693      C1755   1.480       .  S
C1693      C2288   1.414   1_545  A
C1693      C1698   1.404       .  A
C1694      C1740   1.475   1_554  S
C1694      C2287   1.414       .  A
C1695      C1748   1.479       .  S
C1695      C2290   1.405   1_556  A
C1696      C2346   1.482       .  S
C1696      C2289   1.407   1_554  A
C1697      C1698   1.402       .  A
C1698      C1744   1.478       .  S
C1699      C1779   1.477       .  S
C1699      C1700   1.401       .  A
C1699      C1704   1.402       .  A
C1700      C1760   1.473       .  S
C1700      C1701   1.408       .  A
C1701      C1767   1.480       .  S
C1701      C1702   1.403       .  A
C1702      C1776   1.483       .  S
C1702      C1703   1.416       .  A
C1703      C1764   1.481       .  S
C1703      C1704   1.414       .  A
C1704      C1772   1.476       .  S
C1705      C1716   1.495       .  S
C1705      C1706   1.406       .  A
C1705      C1710   1.411       .  A
C1706      C1720   1.473       .  S
C1706      C1707   1.410       .  A
C1707      C1731   1.481       .  S
C1707      C1708   1.411       .  A
C1708      C1712   1.483       .  S
C1708      C1709   1.404       .  A
C1709      C1723   1.477       .  S
C1709      C1710   1.402       .  A
C1710      C1727   1.469       .  S
C1711      C1712   1.338       .  D
C1711      H1713   1.085       .  S
C1712      H1714   1.087       .  S
C1715      C1716   1.339       .  D
C1715      H1717   1.078       .  S
C1716      H1718   1.087       .  S
C1719      C1720   1.341       .  D
C1719      H1721   1.088       .  S
C1720      H1722   1.087       .  S
C1723      C1724   1.346       .  D
C1723      H1725   1.087       .  S
C1724      H1726   1.087       .  S
C1727      C1728   1.333       .  D
C1727      H1729   1.087       .  S
C1728      H1730   1.087       .  S
C1731      C1732   1.346       .  D
C1731      H1733   1.087       .  S
C1732      H1734   1.087       .  S
C1735      C1736   1.347   1_554  D
C1736      H1738   1.087       .  S
C1739      C1740   1.342   1_554  D
C1740      H1742   1.087       .  S
C1743      C1744   1.338       .  D
C1743      H1745   1.086   1_554  S
C1744      H1746   1.087       .  S
C1747      C1748   1.335       .  D
C1747      H1749   1.087   1_556  S
C1748      H1750   1.085       .  S
C1751      C1752   1.331       .  D
C1751      H1753   1.084   1_554  S
C1752      C2290   1.479       .  S
C1752      H2348   1.088       .  S
H1754      C2346   1.088       .  S
C1755      C1756   1.343   1_554  D
C1755      H1757   1.087       .  S
C1756      H2352   1.087       .  S
H1758      C2350   1.087       .  S
C1759      C1760   1.338       .  D
C1759      H1761   1.087       .  S
C1760      H1762   1.086       .  S
C1763      C1764   1.330       .  D
C1763      H1765   1.087       .  S
C1764      H1766   1.087       .  S
C1767      C1768   1.341       .  D
C1767      H1769   1.086       .  S
C1768      H1770   1.089       .  S
C1771      C1772   1.338       .  D
C1771      H1773   1.086       .  S
C1772      H1774   1.088       .  S
C1775      C1776   1.333       .  D
C1775      H1777   1.081       .  S
C1776      H1778   1.087       .  S
C1779      C1780   1.344       .  D
C1779      H1781   1.087       .  S
C1780      H1782   1.086       .  S
O1783     Mg1785   2.159       .  S
O1783     Mg1791   2.150       .  S
O1783      C1818   1.230       .  S
C1784      O1797   1.236       .  S
C1784      O1821   1.270       .  A
C1784      H1823   1.081       .  S
Mg1785     O1814   2.140       .  S
Mg1785     O1829   2.261       .  S
Mg1785     O1825   2.238       .  S
Mg1785     O1796   2.292       .  S
O1786     Mg1828   2.144       .  S
O1786     Mg1811   2.161       .  S
O1786      C1807   1.239       .  S
O1787      C1818   1.264       .  A
O1787     Mg1811   2.289       .  S
C1788      O1790   1.278       .  A
O1789      C1817   1.275       .  A
O1789     Mg1791   2.320       .  S
O1790     Mg1822   2.309       .  S
Mg1791     O1797   2.126       .  S
Mg1791     O1805   2.225       .  S
Mg1791     O1793   2.291       .  S
C1792      O1830   1.264       .  A
C1792      O1798   1.264       .  A
C1792      C2374   1.469       .  S
O1793      C1800   1.272       .  A
H1794      C1807   1.081       .  S
C1795      O1809   1.232       .  S
C1795      O1810   1.266       .  A
C1795      H1820   1.081       .  S
O1796      C1819   1.270       .  A
O1797     Mg1811   2.186       .  S
C1799      O1812   1.267       .  A
C1799      O1804   1.275       .  A
C1799      C2263   1.463       .  S
C1800      O1827   1.278       .  A
C1800      C2271   1.486       .  S
Mg1801     O1808   2.133       .  S
Mg1801     O1809   2.156       .  S
Mg1801     O1803   2.323       .  S
O1803      C1807   1.275       .  A
O1804     Mg1811   2.308       .  S
O1805      C1824   1.263       .  A
O1806      C1826   1.279       .  A
O1806     Mg1822   2.340       .  S
O1808     Mg1822   2.191       .  S
O1808      C1819   1.236       .  S
O1809     Mg1828   2.166       .  S
O1810     Mg1822   2.299       .  S
Mg1811     O1827   2.316       .  S
O1812     Mg1828   2.228       .  S
H1813      C1818   1.081       .  S
O1814     Mg1822   2.150       .  S
O1814      C1817   1.239       .  S
H1815      C1817   1.081       .  S
H1816      C1819   1.081       .  S
O1821     Mg1828   2.295       .  S
C1824      O1829   1.265       .  A
C1824      C2369   1.457       .  S
O1825      C1826   1.268       .  A
C1826      C1831   1.475       .  S
C1831      C1832   1.405       .  A
C1831      C1836   1.399       .  A
C1832      C1863   1.475       .  S
C1832      C1833   1.416       .  A
C1833      H1838   1.085       .  S
C1833      C1834   1.414       .  A
C1834      C1994   1.487       .  S
C1834      C1835   1.420       .  A
C1835      C2004   1.481       .  S
C1835      C1836   1.407       .  A
C1836      H1837   1.086       .  S
C1839      C1900   1.488       .  S
C1839      C1840   1.418       .  A
C1839      C1844   1.405       .  A
C1840      C1841   1.411       .  A
C1841      H1846   1.085       .  S
C1841      C1842   1.412       .  A
C1842      C2052   1.477       .  S
C1842      C1843   1.418       .  A
C1843      C1956   1.490       .  S
C1843      C1844   1.404       .  A
C1844      H1845   1.086       .  S
O1847     Mg1849   2.182       .  S
O1847     Mg1855   2.158       .  S
O1847      C1882   1.228       .  S
C1848      O1861   1.235       .  S
C1848      O1885   1.268       .  A
C1848      H1887   1.080       .  S
Mg1849     O1878   2.142       .  S
Mg1849     O1889   2.218       .  S
Mg1849     O1860   2.286       .  S
O1850     Mg1875   2.140       .  S
O1850      C1871   1.238       .  S
O1851      C1882   1.263       .  A
O1851     Mg1875   2.297       .  S
C1852      O1854   1.277       .  A
C1852      O1866   1.271       .  A
C1852      C2280   1.467       .  S
O1853      C1881   1.276       .  A
O1853     Mg1855   2.329       .  S
O1854     Mg1886   2.281       .  S
Mg1855     O1861   2.137       .  S
C1856      O1894   1.264       .  A
C1856      O1862   1.256       .  A
C1856      C2362   1.467       .  S
H1858      C1871   1.081       .  S
C1859      O1873   1.228       .  S
C1859      O1874   1.263       .  A
C1859      H1884   1.081   1_565  S
O1860      C1883   1.268       .  A
O1861     Mg1875   2.200       .  S
O1862     Mg1892   2.212       .  S
C1863      O1876   1.265       .  A
C1864      O1891   1.279       .  A
Mg1865     O1872   2.138       .  S
Mg1865     O1873   2.160       .  S
Mg1865     O1866   2.271       .  S
Mg1865     O1867   2.324       .  S
O1867      C1871   1.275       .  A
O1868     Mg1875   2.344       .  S
O1869      C1888   1.264       .  A
O1870      C1890   1.279       .  A
O1870     Mg1886   2.342       .  S
O1872     Mg1886   2.203       .  S
O1872      C1883   1.235       .  S
O1874     Mg1886   2.296       .  S
Mg1875     O1891   2.292       .  S
O1876     Mg1892   2.216       .  S
H1877      C1882   1.081       .  S
O1878     Mg1886   2.130       .  S
O1878      C1881   1.239       .  S
H1879      C1881   1.081       .  S
H1880      C1883   1.081       .  S
C1888      O1893   1.251       .  A
C1888      C2365   1.464       .  S
O1889      C1890   1.263       .  A
C1890      C2264   1.479       .  S
O1895     Mg1897   2.174       .  S
O1895     Mg1903   2.155       .  S
O1895      C1930   1.233       .  S
C1896      O1909   1.235       .  S
C1896      O1933   1.268       .  A
C1896      H1935   1.081       .  S
Mg1897     O1926   2.147       .  S
Mg1897     O1941   2.223       .  S
Mg1897     O1937   2.246       .  S
Mg1897     O1908   2.284       .  S
O1898     Mg1940   2.146       .  S
O1898     Mg1923   2.151       .  S
O1898      C1919   1.241       .  S
O1899      C1930   1.268       .  A
O1899     Mg1923   2.301       .  S
C1900      O1914   1.272       .  A
O1901      C1929   1.276       .  A
O1901     Mg1903   2.322       .  S
O1902     Mg1934   2.349       .  S
Mg1903     O1909   2.138       .  S
Mg1903     O1917   2.255       .  S
Mg1903     O1905   2.252       .  S
C1904      O1942   1.258       .  A
C1904      O1910   1.263       .  A
C1904      C2353   1.451       .  S
O1905      C1912   1.268       .  A
H1906      C1919   1.081       .  S
C1907      O1921   1.234   1_545  S
C1907      O1922   1.269   1_545  A
O1908      C1931   1.267       .  A
O1909     Mg1923   2.193       .  S
C1911      O1924   1.273       .  A
C1911      O1916   1.288       .  A
C1911      C2279   1.495       .  S
C1912      O1939   1.284       .  A
C1912      C2272   1.488       .  S
Mg1913     O1920   2.114       .  S
Mg1913     O1921   2.159       .  S
Mg1913     O1915   2.325       .  S
O1915      C1919   1.277       .  A
O1916     Mg1923   2.398       .  S
O1917      C1936   1.261       .  A
O1918      C1938   1.284       .  A
O1918     Mg1934   2.366       .  S
O1920     Mg1934   2.181       .  S
O1920      C1931   1.235       .  S
O1921     Mg1940   2.191       .  S
O1922     Mg1934   2.308       .  S
Mg1923     O1939   2.352       .  S
O1924     Mg1940   2.276       .  S
H1925      C1930   1.079       .  S
O1926     Mg1934   2.143       .  S
O1926      C1929   1.240       .  S
H1927      C1929   1.080       .  S
H1928      C1931   1.081       .  S
O1933     Mg1940   2.290       .  S
C1936      O1941   1.261       .  A
C1936      C2357   1.461       .  S
O1937      C1938   1.269       .  A
C1938      C1943   1.478       .  S
C1943      C1944   1.420       .  A
C1943      C1948   1.407       .  A
C1944      C1945   1.397       .  A
C1945      H1950   1.086       .  S
C1945      C1946   1.399       .  A
C1946      C2090   1.468       .  S
C1946      C1947   1.410       .  A
C1947      C2042   1.469       .  S
C1947      C1948   1.405       .  A
C1948      H1949   1.085       .  S
O1951     Mg1953   2.178   1_566  S
O1951     Mg1959   2.148   1_565  S
O1951      C1986   1.234       .  S
C1952      O1989   1.270       .  A
C1952      H1991   1.081       .  S
Mg1953     O1964   2.290   1_545  S
O1954     Mg1979   2.139       .  S
O1954      C1975   1.241   1_556  S
O1955      C1986   1.270       .  A
O1955     Mg1979   2.308       .  S
C1956      O1958   1.284       .  A
C1956      O1970   1.276       .  A
O1957      C1985   1.276   1_556  A
O1958     Mg1990   2.343       .  S
Mg1959     O1965   2.130   1_545  S
Mg1959     O1961   2.303   1_545  S
C1960      O1998   1.269       .  A
C1960      O1966   1.255   1_554  A
C1960      C2345   1.471       .  S
O1961      C1968   1.275       .  A
H1962      C1975   1.081   1_556  S
C1963      O1977   1.234       .  S
C1963      O1978   1.269       .  A
C1963      H1988   1.081   1_554  S
O1964      C1987   1.268       .  A
O1965     Mg1979   2.176       .  S
C1967      O1980   1.264       .  A
C1967      O1972   1.283       .  A
C1967      C2256   1.475       .  S
C1968      O1995   1.278       .  A
C1968      C2152   1.485       .  S
Mg1969     O1976   2.146       .  S
Mg1969     O1977   2.129       .  S
Mg1969     O1970   2.304       .  S
O1971      C1975   1.278       .  A
O1972     Mg1979   2.375       .  S
O1973      C1992   1.265       .  A
O1974      C1994   1.288       .  A
O1974     Mg1990   2.400       .  S
O1976     Mg1990   2.189       .  S
O1977     Mg1996   2.168   1_554  S
O1978     Mg1990   2.306       .  S
Mg1979     O1995   2.313       .  S
H1981      C1986   1.080   1_554  S
O1982     Mg1990   2.161       .  S
O1982      C1985   1.240       .  S
H1983      C1985   1.081       .  S
H1984      C1987   1.081       .  S
O1989     Mg1996   2.289       .  S
C1992      O1997   1.267   1_556  A
C1992      C2350   1.464       .  S
O1993      C1994   1.267       .  A
O1999     Mg2001   2.164   1_556  S
O1999     Mg2007   2.128       .  S
O1999      C2034   1.233       .  S
C2000      O2013   1.238       .  S
C2000      O2037   1.271       .  A
C2000      H2039   1.081       .  S
Mg2001     O2030   2.128       .  S
Mg2001     O2045   2.262       .  S
Mg2001     O2041   2.220       .  S
Mg2001     O2012   2.291       .  S
O2002     Mg2044   2.134       .  S
O2002     Mg2027   2.145       .  S
O2002      C2023   1.239   1_556  S
O2003      C2034   1.269       .  A
O2003     Mg2027   2.305       .  S
C2004      O2006   1.278       .  A
C2004      O2018   1.274       .  A
O2005      C2033   1.278       .  A
O2005     Mg2007   2.339       .  S
O2006     Mg2038   2.313       .  S
Mg2007     O2013   2.146       .  S
Mg2007     O2021   2.300       .  S
Mg2007     O2009   2.309       .  S
C2008      O2046   1.268       .  A
C2008      O2014   1.264   1_554  A
C2008      C2337   1.464       .  S
O2009      C2016   1.277       .  A
H2010      C2023   1.081   1_556  S
C2011      O2025   1.233       .  S
C2011      O2026   1.267       .  A
C2011      H2036   1.081   1_554  S
O2012      C2035   1.270       .  A
O2013     Mg2027   2.190       .  S
O2014     Mg2044   2.274       .  S
C2015      O2028   1.263       .  A
C2015      O2020   1.283       .  A
C2015      C2143   1.474       .  S
C2016      O2043   1.279       .  A
C2016      C2255   1.482       .  S
Mg2017     O2024   2.118       .  S
Mg2017     O2025   2.128       .  S
Mg2017     O2018   2.294       .  S
Mg2017     O2019   2.315       .  S
Mg2017     O2046   2.240       .  S
O2019      C2023   1.274       .  A
O2020     Mg2027   2.373       .  S
O2021      C2040   1.270       .  A
O2022      C2042   1.279       .  A
O2022     Mg2038   2.346       .  S
O2024     Mg2038   2.175       .  S
O2024      C2035   1.237       .  S
O2025     Mg2044   2.140   1_554  S
O2026     Mg2038   2.293       .  S
Mg2027     O2043   2.306       .  S
O2028     Mg2044   2.210       .  S
H2029      C2034   1.079   1_554  S
O2030     Mg2038   2.155       .  S
O2030      C2033   1.241   1_554  S
H2031      C2033   1.081   1_554  S
H2032      C2035   1.081       .  S
O2037     Mg2044   2.295       .  S
C2040      O2045   1.259   1_556  A
C2040      C2341   1.475       .  S
O2041      C2042   1.266       .  A
O2047     Mg2049   2.156   1_556  S
O2047      C2082   1.233       .  S
C2048      O2061   1.235       .  S
C2048      O2085   1.269       .  A
C2048      H2087   1.081       .  S
Mg2049     O2093   2.282   1_655  S
Mg2049     O2089   2.230       .  S
Mg2049     O2060   2.292       .  S
O2050      C2071   1.239       .  S
O2051      C2082   1.268       .  A
C2052      O2054   1.277       .  A
C2052      O2066   1.268       .  A
O2053      C2081   1.274       .  A
O2053     Mg2055   2.315   1_554  S
O2054     Mg2086   2.306       .  S
Mg2055     O2061   2.136       .  S
Mg2055     O2069   2.246       .  S
Mg2055     O2057   2.248       .  S
C2056      O2094   1.262   1_556  A
C2056      C2330   1.456       .  S
O2057      C2064   1.266       .  A
H2058      C2071   1.081       .  S
C2059      O2073   1.232       .  S
C2059      O2074   1.265       .  A
C2059      H2084   1.082       .  S
O2060      C2083   1.269       .  A
O2061     Mg2075   2.179       .  S
O2062     Mg2092   2.302       .  S
C2063      O2076   1.270       .  A
C2063      O2068   1.282       .  A
C2063      C2144   1.474       .  S
C2064      O2091   1.278       .  A
C2064      C2151   1.472       .  S
Mg2065     O2072   2.123       .  S
Mg2065     O2066   2.269       .  S
Mg2065     O2067   2.308   1_554  S
Mg2065     O2094   2.199       .  S
O2067      C2071   1.273       .  A
O2068     Mg2075   2.348       .  S
O2069      C2088   1.264   1_556  A
O2070      C2090   1.278       .  A
O2070     Mg2086   2.329       .  S
O2072     Mg2086   2.181       .  S
O2072      C2083   1.236       .  S
O2073     Mg2092   2.146   1_554  S
Mg2075     O2091   2.312       .  S
O2076     Mg2092   2.242       .  S
H2077      C2082   1.082       .  S
O2078      C2081   1.238       .  S
H2079      C2081   1.081       .  S
H2080      C2083   1.081       .  S
O2085     Mg2092   2.293       .  S
C2088      C2333   1.459       .  S
O2089      C2090   1.267       .  A
O2095     Mg2097   2.171       .  S
O2095     Mg2103   2.143       .  S
O2095      C2130   1.234       .  S
C2096      O2109   1.235       .  S
C2096      O2133   1.268       .  A
C2096      H2135   1.081       .  S
Mg2097     O2126   2.145       .  S
Mg2097     O2137   2.247       .  S
Mg2097     O2108   2.290       .  S
O2098     Mg2140   2.142       .  S
O2098     Mg2123   2.150       .  S
O2098      C2119   1.239       .  S
O2099      C2130   1.270       .  A
O2099     Mg2123   2.305       .  S
C2100      O2102   1.281       .  A
C2100      O2114   1.273       .  A
C2100      C2275   1.490       .  S
O2101      C2129   1.276       .  A
O2101     Mg2103   2.323       .  S
O2102     Mg2134   2.337       .  S
Mg2103     O2109   2.133       .  S
C2104      O2142   1.267       .  A
C2104      O2110   1.267       .  A
C2104      C2322   1.466       .  S
O2105      C2112   1.276       .  A
H2106      C2119   1.081       .  S
C2107      O2121   1.233       .  S
C2107      O2122   1.268       .  A
C2107      H2132   1.079       .  S
O2108      C2131   1.268       .  A
O2109     Mg2123   2.178       .  S
O2110     Mg2140   2.264       .  S
C2111      O2124   1.266       .  A
C2111      O2116   1.282       .  A
C2111      C2147   1.470       .  S
C2112      C2154   1.485       .  S
Mg2113     O2120   2.143       .  S
Mg2113     O2121   2.141       .  S
Mg2113     O2114   2.283       .  S
Mg2113     O2115   2.314       .  S
Mg2113     O2142   2.258       .  S
O2115      C2119   1.274       .  A
O2116     Mg2123   2.362       .  S
O2117      C2136   1.266       .  A
O2118      C2138   1.285       .  A
O2118     Mg2134   2.378       .  S
O2120     Mg2134   2.190       .  S
O2120      C2131   1.235       .  S
O2121     Mg2140   2.151       .  S
O2122     Mg2134   2.296       .  S
Mg2123     O2139   2.321       .  S
O2124     Mg2140   2.220       .  S
H2125      C2130   1.079       .  S
O2126     Mg2134   2.160       .  S
O2126      C2129   1.239       .  S
H2127      C2129   1.081       .  S
H2128      C2131   1.081       .  S
O2133     Mg2140   2.289       .  S
C2136      O2141   1.267       .  A
C2136      C2326   1.465       .  S
O2137      C2138   1.269       .  A
C2138      C2282   1.483       .  S
C2143      C2144   1.413       .  A
C2143      C2148   1.408       .  A
C2144      C2145   1.400       .  A
C2145      H2150   1.086       .  S
C2145      C2146   1.402       .  A
C2146      C2176   1.484       .  S
C2146      C2147   1.416       .  A
C2147      C2148   1.411       .  A
C2148      H2149   1.085       .  S
C2151      C2152   1.415       .  A
C2151      C2156   1.411       .  A
C2152      C2153   1.399       .  A
C2153      H2158   1.086       .  S
C2153      C2154   1.402       .  A
C2154      C2155   1.419       .  A
C2155      C2156   1.411       .  A
C2156      H2157   1.084       .  S
O2159     Mg2161   2.164       .  S
O2159     Mg2167   2.135       .  S
O2159      C2194   1.234   1_655  S
C2160      O2173   1.235       .  S
C2160      O2197   1.268       .  A
C2160      H2199   1.081       .  S
Mg2161     O2190   2.140       .  S
Mg2161     O2201   2.231       .  S
Mg2161     O2172   2.287       .  S
O2162     Mg2204   2.150       .  S
O2162     Mg2187   2.147       .  S
O2162      C2183   1.239       .  S
O2163      C2194   1.269   1_655  A
O2163     Mg2187   2.306       .  S
C2164      O2166   1.277       .  A
C2164      O2178   1.270       .  A
C2164      C2283   1.470       .  S
O2165      C2193   1.276       .  A
O2165     Mg2167   2.324       .  S
O2166     Mg2198   2.302       .  S
Mg2167     O2173   2.135       .  S
C2168      O2206   1.265       .  A
C2168      O2174   1.265       .  A
C2168      C2313   1.462       .  S
O2169      C2176   1.273       .  A
H2170      C2183   1.081       .  S
C2171      O2185   1.234       .  S
C2171      O2186   1.268       .  A
C2171      H2196   1.081       .  S
O2172      C2195   1.268       .  A
O2173     Mg2187   2.182       .  S
C2175      O2180   1.285       .  A
Mg2177     O2184   2.120       .  S
Mg2177     O2185   2.138       .  S
Mg2177     O2178   2.269       .  S
Mg2177     O2179   2.308       .  S
O2179      C2183   1.273       .  A
O2180     Mg2187   2.376       .  S
O2181      C2200   1.264       .  A
O2182      C2202   1.279       .  A
O2182     Mg2198   2.346       .  S
O2184     Mg2198   2.174       .  S
O2184      C2195   1.235       .  S
O2185     Mg2204   2.143       .  S
O2186     Mg2198   2.298       .  S
Mg2187     O2203   2.321       .  S
H2189      C2194   1.080       .  S
O2190     Mg2198   2.146       .  S
O2190      C2193   1.240       .  S
H2191      C2193   1.081       .  S
H2192      C2195   1.081       .  S
O2197     Mg2204   2.288       .  S
C2200      O2205   1.266       .  A
C2200      C2318   1.460       .  S
O2201      C2202   1.267       .  A
C2202      C2267   1.471       .  S
O2207     Mg2209   2.154       .  S
O2207      C2242   1.234       .  S
C2208      O2221   1.234       .  S
C2208      O2245   1.267       .  A
C2208      H2247   1.081       .  S
Mg2209     O2238   2.153       .  S
Mg2209     O2249   2.235       .  S
Mg2209     O2220   2.295       .  S
O2210     Mg2252   2.155       .  S
O2210     Mg2235   2.144       .  S
O2210      C2231   1.238       .  S
O2211      C2242   1.269       .  A
O2211     Mg2235   2.301       .  S
C2212      O2214   1.284       .  A
C2212      O2226   1.268       .  A
C2212      C2274   1.487       .  S
O2213      C2241   1.274       .  A
O2214     Mg2246   2.347       .  S
Mg2215     O2229   2.224       .  S
Mg2215     O2217   2.241       .  S
C2216      O2254   1.265       .  A
C2216      O2222   1.273       .  A
C2216      C2309   1.473       .  S
H2218      C2231   1.081       .  S
C2219      O2233   1.233       .  S
C2219      O2234   1.268       .  A
C2219      H2244   1.081       .  S
O2220      C2243   1.269       .  A
O2221     Mg2235   2.181       .  S
O2222     Mg2252   2.292       .  S
C2223      O2236   1.272       .  A
C2223      O2228   1.282       .  A
C2223      C2259   1.480       .  S
C2224      O2251   1.278   1_455  A
Mg2225     O2232   2.149       .  S
Mg2225     O2233   2.153       .  S
Mg2225     O2226   2.260       .  S
Mg2225     O2227   2.301       .  S
Mg2225     O2254   2.237       .  S
O2227      C2231   1.272       .  A
O2228     Mg2235   2.350       .  S
O2229      C2248   1.261       .  A
O2230      C2250   1.286       .  A
O2230     Mg2246   2.382       .  S
O2232     Mg2246   2.185       .  S
O2232      C2243   1.235       .  S
O2233     Mg2252   2.161       .  S
O2234     Mg2246   2.301       .  S
Mg2235     O2251   2.316       .  S
O2236     Mg2252   2.259       .  S
H2237      C2242   1.081       .  S
O2238     Mg2246   2.161       .  S
O2238      C2241   1.239       .  S
H2239      C2241   1.081       .  S
H2240      C2243   1.081       .  S
O2245     Mg2252   2.284       .  S
C2248      O2253   1.271       .  A
C2248      C2305   1.472       .  S
O2249      C2250   1.268       .  A
C2250      C2266   1.482       .  S
C2255      C2256   1.417       .  A
C2255      C2260   1.404       .  A
C2256      C2257   1.410       .  A
C2257      H2262   1.085       .  S
C2257      C2258   1.410       .  A
C2258      C2259   1.413       .  A
C2259      C2260   1.401       .  A
C2260      H2261   1.086       .  S
C2263      C2264   1.406       .  A
C2263      C2268   1.406       .  A
C2264      C2265   1.408       .  A
C2265      H2270   1.085       .  S
C2266      C2267   1.412       .  A
C2268      H2269   1.085       .  S
C2271      C2272   1.416       .  A
C2271      C2276   1.406       .  A
C2272      C2273   1.415       .  A
C2273      H2278   1.085       .  S
C2273      C2274   1.406       .  A
C2274      C2275   1.420       .  A
C2275      C2276   1.414       .  A
C2276      H2277   1.085       .  S
C2279      C2280   1.422       .  A
C2281      H2286   1.086       .  S
C2281      C2282   1.400       .  A
C2282      C2283   1.416       .  A
C2283      C2284   1.413       .  A
C2284      H2285   1.085       .  S
C2287      C2349   1.478       .  S
C2287      C2292   1.405       .  A
C2288      C2334   1.477   1_554  S
C2289      C2342   1.484       .  S
C2291      C2292   1.400       .  A
C2292      C2338   1.476       .  S
C2293      C2373   1.477       .  S
C2293      C2294   1.399       .  A
C2293      C2298   1.400       .  A
C2294      C2354   1.471       .  S
C2294      C2295   1.408       .  A
C2295      C2361   1.480       .  S
C2295      C2296   1.406       .  A
C2296      C2370   1.484       .  S
C2296      C2297   1.415       .  A
C2297      C2358   1.482       .  S
C2297      C2298   1.415       .  A
C2298      C2366   1.470       .  S
C2299      C2310   1.487       .  S
C2299      C2300   1.408       .  A
C2299      C2304   1.411       .  A
C2300      C2314   1.477       .  S
C2300      C2301   1.411       .  A
C2301      C2325   1.481       .  S
C2301      C2302   1.410       .  A
C2302      C2306   1.487       .  S
C2302      C2303   1.406       .  A
C2303      C2317   1.475       .  S
C2303      C2304   1.411       .  A
C2304      C2321   1.482       .  S
C2305      C2306   1.340       .  D
C2305      H2307   1.086       .  S
C2306      H2308   1.087       .  S
C2309      C2310   1.341       .  D
C2309      H2311   1.086       .  S
C2310      H2312   1.087       .  S
C2313      C2314   1.343       .  D
C2313      H2315   1.088       .  S
C2314      H2316   1.087       .  S
C2317      C2318   1.342       .  D
C2317      H2319   1.087       .  S
C2318      H2320   1.088       .  S
C2321      C2322   1.347       .  D
C2321      H2323   1.087       .  S
C2322      H2324   1.087       .  S
C2325      C2326   1.346       .  D
C2325      H2327   1.087       .  S
C2326      H2328   1.087       .  S
C2329      C2330   1.347   1_554  D
C2330      H2332   1.087       .  S
C2333      C2334   1.342   1_554  D
C2334      H2336   1.087       .  S
C2337      C2338   1.338       .  D
C2337      H2339   1.086   1_554  S
C2338      H2340   1.087       .  S
C2341      C2342   1.338       .  D
C2341      H2343   1.087   1_556  S
C2342      H2344   1.085       .  S
C2345      C2346   1.333       .  D
C2345      H2347   1.083   1_554  S
C2349      C2350   1.343   1_554  D
C2349      H2351   1.087       .  S
C2353      C2354   1.337       .  D
C2353      H2355   1.087       .  S
C2354      H2356   1.086       .  S
C2357      C2358   1.345       .  D
C2357      H2359   1.087       .  S
C2358      H2360   1.086       .  S
C2361      C2362   1.342       .  D
C2361      H2363   1.086       .  S
C2362      H2364   1.089       .  S
C2365      C2366   1.338       .  D
C2365      H2367   1.086       .  S
C2366      H2368   1.087       .  S
C2369      C2370   1.339       .  D
C2369      H2371   1.081       .  S
C2370      H2372   1.087       .  S
C2373      C2374   1.345       .  D
C2373      H2375   1.087       .  S
C2374      H2376   1.086       .  S
