geometry optimzed in LAMMPS
_audit_creation_date              2020-11-30 
_audit_creation_method            'lammps2cif' 
_symmetry_space_group_name_H-M    'P1' 
_symmetry_Int_Tables_number       1 
_symmetry_cell_setting            triclinic 
loop_ 
_symmetry_equiv_pos_as_xyz 
  x,y,z 
_cell_length_a                    45.64885936 
_cell_length_b                    45.65549097336073 
_cell_length_c                    34.023878650515286 
_cell_angle_alpha                 90.00251704794061 
_cell_angle_beta                  89.61563482975163 
_cell_angle_gamma                 89.94706741875927 
loop_ 
_atom_site_label 
_atom_site_type_symbol 
_atom_site_fract_x 
_atom_site_fract_y 
_atom_site_fract_z 
_atom_site_charge 
C1          C  0.36126506  0.37865884  0.99677294     0.03600
C2          C  0.35246619  0.36450931  0.29521799    -0.12600
C3          C  0.32917977  0.34451976  0.29558504     0.01100
C4          C  0.31703689  0.33537010  0.33135285    -0.11100
C5          C  0.32778885  0.34651337  0.03267341     0.03600
C6          C  0.34948480  0.36817482  0.03245744    -0.10500
H7          H  0.36288532  0.36956838  0.26738948     0.09200
H8          H  0.29998778  0.31884588  0.33177711     0.06700
H9          H  0.35714059  0.37678165  0.06022019     0.06500
C10         C  0.14922637  0.36797597  0.99935543     0.03600
C11         C  0.16179835  0.35756210  0.29647486    -0.12600
C12         C  0.18256867  0.33492777  0.29606958     0.01100
C13         C  0.19266046  0.32325304  0.33149000    -0.11100
C14         C  0.18126097  0.33436848  0.03476018     0.03600
C15         C  0.15987753  0.35642665  0.03491276    -0.10500
H16         H  0.15527225  0.36728768  0.26884902     0.09200
H17         H  0.20940222  0.30638390  0.33122319     0.06700
H18         H  0.15150212  0.36439336  0.06279504     0.06500
C19         C  0.37166948  0.16551269  0.99704951     0.03600
C20         C  0.35950849  0.17574916  0.29521547    -0.12600
C21         C  0.33952533  0.19908930  0.29483647     0.01100
C22         C  0.33010024  0.21135846  0.99642512    -0.11100
C23         C  0.34076169  0.20072982  0.03211627     0.03600
C24         C  0.36217589  0.17876353  0.03234300    -0.10500
H25         H  0.36477608  0.16505979  0.26768626     0.09200
H26         H  0.31376132  0.22861561  0.99627601     0.06700
H27         H  0.37126929  0.17213296  0.06025683     0.06500
N28         N  0.00906080  0.47139644  0.32814550    -0.36200
N29         N  0.46500314  0.01856412  0.33168910    -0.56700
N30         N  0.01305086  0.06179187  0.33121870    -0.36200
N31         N  0.05668394  0.01476527  0.33222136    -0.56700
C32         C  0.48477410  0.45512991  0.33222365     0.27400
C33         C  0.03231315  0.45351236  0.33434593     0.27400
C34         C  0.48968778  0.08001942  0.32970478     0.27400
C35         C  0.03766994  0.07813781  0.33516234     0.27400
C36         C  0.44721015  0.49538822  0.32742568     0.36000
C37         C  0.44858856  0.04323891  0.33376237     0.36000
C38         C  0.07279661  0.49031729  0.32771332     0.36000
C39         C  0.07529058  0.03784683  0.33035671     0.36000
C40         C  0.49276399  0.42611194  0.33829665    -0.21400
C41         C  0.02228823  0.42555032  0.34272310    -0.21400
C42         C  0.50022519  0.10836591  0.32536152    -0.21400
C43         C  0.02958197  0.10713078  0.34131388    -0.21400
C44         C  0.41788958  0.00590440  0.33935830    -0.22500
C45         C  0.41921306  0.03578294  0.33745026    -0.22500
C46         C  0.10251879  0.99782453  0.32533836    -0.22500
C47         C  0.10388040  0.02770588  0.32715366    -0.22500
C48         C  0.45529821  0.46531319  0.32942171    -0.17800
C49         C  0.06242098  0.46110598  0.33101719    -0.17800
C50         C  0.06720941  0.06796119  0.33245717    -0.17800
C51         C  0.45939651  0.07244873  0.33170844    -0.17800
H52         H  0.47877906  0.40713336  0.34093708     0.15100
H53         H  0.03516001  0.40621384  0.34896937     0.15100
H54         H  0.48673183  0.12831392  0.99809219     0.15100
H55         H  0.04387928  0.12603038  0.99950932     0.15100
H56         H  0.39873438  0.49292932  0.32139749     0.13400
H57         H  0.40039492  0.05014679  0.33864532     0.13300
H58         H  0.12052911  0.48341858  0.31843555     0.13400
H59         H  0.12392148  0.04028261  0.32629934     0.13300
H60         H  0.01003237  0.49256668  0.31742085     0.26600
H61         H  0.01223046  0.04020475  0.32236796     0.26600
C62         C  0.15936976  0.15611289  0.99943290     0.03600
C63         C  0.17057231  0.16803450  0.29640967    -0.12600
C64         C  0.19356274  0.18838094  0.29578336     0.01100
C65         C  0.20484080  0.19806475  0.99843701    -0.11100
C66         C  0.19424659  0.18725250  0.03423204     0.03600
C67         C  0.17252744  0.16557472  0.03465452    -0.10500
H68         H  0.16010801  0.16255918  0.26894123     0.09200
H69         H  0.22205121  0.21442293  0.99808142     0.06700
H70         H  0.16616312  0.15619657  0.06262296     0.06500
N71         N  0.29124928  0.32406929  0.21002940    -0.05700
N72         N  0.29326858  0.34149286  0.24091072    -0.57800
N73         N  0.31309366  0.30615883  0.11867721    -0.05300
N74         N  0.33044039  0.31128096  0.08822808    -0.59900
N75         N  0.29094867  0.32464108  0.11893939    -0.04900
N76         N  0.29268283  0.34266030  0.08864685    -0.57800
N77         N  0.31331322  0.30549604  0.20927133    -0.04600
N78         N  0.33089861  0.30996793  0.23930755    -0.60300
C79         C  0.31817103  0.33249710  0.25859921     0.96500
C80         C  0.31749474  0.33416884  0.07003216     0.96300
N81         N  0.30040003  0.21558084  0.11828686    -0.05900
N82         N  0.30544709  0.19832026  0.08784654    -0.58400
N83         N  0.31877137  0.23701955  0.20921195    -0.04000
N84         N  0.33651085  0.23480185  0.23961192    -0.59600
N85         N  0.30018442  0.21500708  0.20892321    -0.05900
N86         N  0.30497646  0.19725198  0.23882485    -0.58600
N87         N  0.31890307  0.23767051  0.11820289    -0.03600
N88         N  0.33687310  0.23598902  0.08769274    -0.59700
Mn89       Mn  0.31706856  0.27167971  0.16381755     1.18400
C90         C  0.32828409  0.21127955  0.06927711     0.98600
C91         C  0.32775778  0.20978385  0.25748381     0.99300
N92         N  0.22224646  0.31901442  0.11960765    -0.05900
N93         N  0.21673892  0.33673285  0.08985318    -0.62200
N94         N  0.20401947  0.29691525  0.21049120    -0.04700
N95         N  0.18598734  0.29918212  0.24089224    -0.62900
N96         N  0.22259907  0.31894017  0.21009977    -0.05400
N97         N  0.21753816  0.33672943  0.23996850    -0.62500
N98         N  0.20383913  0.29683839  0.11964210    -0.04300
N99         N  0.18551812  0.29890984  0.08989505    -0.63200
Mn100      Mn  0.25671605  0.32272263  0.16466259     1.10700
C101        C  0.19368633  0.32398521  0.07186907     0.99800
C102        C  0.19457277  0.32422495  0.25867328     0.99900
N103        N  0.23152934  0.20965167  0.20990916    -0.05400
N104        N  0.22927112  0.19167813  0.24022768    -0.60800
N105        N  0.20970795  0.22812234  0.11928631    -0.04700
N106        N  0.19206586  0.22273231  0.08954944    -0.57500
N107        N  0.23185114  0.20964058  0.11900077    -0.06000
N108        N  0.22983103  0.19136454  0.08904416    -0.60400
N109        N  0.20948581  0.22825311  0.20983790    -0.05000
N110        N  0.19169228  0.22325535  0.23983713    -0.57500
Mn111      Mn  0.26609041  0.21145450  0.16402153     1.20200
Mn112      Mn  0.20576669  0.26245253  0.16480373     1.10000
Cl113      Cl  0.26140093  0.26708743  0.16428491    -0.85500
C114        C  0.20421060  0.20031279  0.25830030     0.96800
C115        C  0.20481926  0.19967316  0.07123256     0.96600
C116        C  0.13305617  0.11294004  0.96873120     0.24000
C117        C  0.13564374  0.13332904  0.99982290    -0.24100
C118        C  0.11531806  0.13146902  0.03129697     0.19000
C119        C  0.09425278  0.10923204  0.03241357     0.24000
C120        C  0.09096819  0.08998728  0.00052871    -0.24000
C121        C  0.11042806  0.09295969  0.30009169     0.18900
F122        F  0.10688402  0.07571977  0.26794060    -0.14000
F123        F  0.15388562  0.11138945  0.27124080    -0.16300
F124        F  0.07630625  0.10704236  0.06427503    -0.16300
F125        F  0.11496633  0.15164020  0.06059183    -0.14000
C126        C  0.39429807  0.12054016  0.02848927     0.24000
C127        C  0.39387009  0.14126887  0.99760244    -0.24100
C128        C  0.41471107  0.13859202  0.29929544     0.19000
C129        C  0.43463990  0.11529077  0.29881049     0.24000
C130        C  0.43656901  0.09595748  0.99929720    -0.24000
C131        C  0.41608449  0.09899327  0.03006627     0.18900
F132        F  0.41658280  0.08035239  0.06116846    -0.14000
F133        F  0.37316076  0.12036299  0.05674195    -0.16300
F134        F  0.45189638  0.11125199  0.26658563    -0.16300
F135        F  0.41569211  0.15795363  0.26905596    -0.14000
C136        C  0.10679658  0.43711747  0.02639087     0.24000
C137        C  0.08454633  0.43682820  0.33183916    -0.24100
C138        C  0.08428410  0.41475464  0.30302077     0.19000
C139        C  0.10471421  0.39189527  0.30394583     0.24000
C140        C  0.12663848  0.39165197  0.99938801    -0.24000
C141        C  0.12829776  0.41525034  0.02602526     0.18900
F142        F  0.15122123  0.41775591  0.05101818    -0.14000
F143        F  0.10637207  0.45628897  0.39018665    -0.16300
F144        F  0.09983635  0.36798525  0.94767127    -0.16300
F145        F  0.06391422  0.41515790  0.27411928    -0.14000
C146        C  0.43029546  0.42027519  0.02492035     0.24000
C147        C  0.43125986  0.44298955  0.32965150    -0.24100
C148        C  0.41264935  0.43987169  0.29716477     0.19000
C149        C  0.38946911  0.41984113  0.29812721     0.24000
C150        C  0.38520245  0.40093913  0.99681248    -0.24000
C151        C  0.40839317  0.39889807  0.02386752     0.18900
F152        F  0.41039723  0.37576397  0.04877598    -0.14000
F153        F  0.45153882  0.41824807  0.05253569    -0.16300
F154        F  0.36987557  0.42057206  0.26831635    -0.16300
F155        F  0.41630716  0.45702821  0.26489107    -0.14000
C156        C  0.36220403  0.37762466  0.33035291     0.03600
C157        C  0.35111384  0.36528488  0.62908618    -0.12600
C158        C  0.32796802  0.34514241  0.62927872     0.01100
C159        C  0.31567638  0.33597437  0.66492069    -0.11100
C160        C  0.32749563  0.34689009  0.36662828     0.03600
C161        C  0.34891779  0.36880853  0.36601355    -0.10500
H162        H  0.36179838  0.37010970  0.60137411     0.09200
H163        H  0.29886409  0.31920703  0.66522879     0.06700
H164        H  0.35506406  0.37876045  0.39359558     0.06500
C165        C  0.14975952  0.36776834  0.33222038     0.03600
C166        C  0.16098070  0.35637419  0.62947411    -0.12600
C167        C  0.18180689  0.33379223  0.62928615     0.01100
C168        C  0.19183477  0.32223293  0.66483049    -0.11100
C169        C  0.18176296  0.33387038  0.36727268     0.03600
C170        C  0.15990038  0.35545055  0.36761573    -0.10500
H171        H  0.15454807  0.36606695  0.60178661     0.09200
H172        H  0.20867390  0.30546187  0.66474718     0.06700
H173        H  0.15086682  0.36249304  0.39556708     0.06500
C174        C  0.37231875  0.16627846  0.33069976     0.03600
C175        C  0.36047714  0.17607029  0.62889078    -0.12600
C176        C  0.34009820  0.19909322  0.62841128     0.01100
C177        C  0.33007954  0.21156623  0.33025152    -0.11100
C178        C  0.34124328  0.20135674  0.36587419     0.03600
C179        C  0.36315061  0.17987417  0.36595835    -0.10500
H180        H  0.36729416  0.16630265  0.60129208     0.09200
H181        H  0.31355984  0.22864990  0.33014203     0.06700
H182        H  0.37281292  0.17393577  0.39377659     0.06500
N183        N  0.00895644  0.47093994  0.66301907    -0.36200
N184        N  0.46510356  0.01802765  0.66435383    -0.56700
N185        N  0.01281499  0.06126867  0.66267745    -0.36200
N186        N  0.05654871  0.01445368  0.66460325    -0.56700
C187        C  0.48432560  0.45485358  0.66740454     0.27400
C188        C  0.03227143  0.45301708  0.66849433     0.27400
C189        C  0.48906995  0.07943976  0.66832314     0.27400
C190        C  0.03731161  0.07757784  0.66793010     0.27400
C191        C  0.44707297  0.49509955  0.66040057     0.36000
C192        C  0.44863705  0.04259769  0.66101695     0.36000
C193        C  0.07270407  0.48993313  0.66160068     0.36000
C194        C  0.07499218  0.03759417  0.66144976     0.36000
C195        C  0.49218451  0.42605359  0.67535421    -0.21400
C196        C  0.02231559  0.42493503  0.67632195    -0.21400
C197        C  0.49899981  0.10752916  0.67594854    -0.21400
C198        C  0.02907077  0.10634553  0.67551130    -0.21400
C199        C  0.41820011  0.00515446  0.65608233    -0.22500
C200        C  0.41957995  0.03505632  0.65526550    -0.22500
C201        C  0.10214837  0.99766879  0.65451441    -0.22500
C202        C  0.10346705  0.02756716  0.65621260    -0.22500
C203        C  0.45493859  0.46502221  0.66333787    -0.17800
C204        C  0.06235648  0.46069368  0.66488343    -0.17800
C205        C  0.06686582  0.06762750  0.66460588    -0.17800
C206        C  0.45895714  0.07182253  0.66473079    -0.17800
H207        H  0.47809898  0.40724632  0.67907545     0.15100
H208        H  0.03522965  0.40551836  0.68193400     0.15100
H209        H  0.48785161  0.12848942  0.32327625     0.15100
H210        H  0.04355334  0.12608170  0.34418561     0.15100
H211        H  0.39878859  0.49289053  0.65187902     0.13400
H212        H  0.40102837  0.04948853  0.65132438     0.13300
H213        H  0.12041520  0.48308686  0.65199335     0.13400
H214        H  0.12340639  0.04021535  0.65397999     0.13300
H215        H  0.00987058  0.49228392  0.65302196     0.26600
H216        H  0.01217673  0.04000636  0.65232372     0.26600
C217        C  0.16108479  0.15517280  0.33205121     0.03600
C218        C  0.16956706  0.16885788  0.62961014    -0.12600
C219        C  0.19292848  0.18878929  0.62920379     0.01100
C220        C  0.20573969  0.19803592  0.33107092    -0.11100
C221        C  0.19562402  0.18673592  0.36684687     0.03600
C222        C  0.17439958  0.16456798  0.36721585    -0.10500
H223        H  0.15907831  0.16376112  0.60204356     0.09200
H224        H  0.22257422  0.21478033  0.33073528     0.06700
H225        H  0.16842133  0.15489471  0.39514540     0.06500
N226        N  0.29050583  0.32417327  0.54365533    -0.05700
N227        N  0.29231232  0.34171583  0.57442681    -0.57800
N228        N  0.31284948  0.30651594  0.45255865    -0.05300
N229        N  0.33032705  0.31191620  0.42234444    -0.59900
N230        N  0.29058493  0.32484696  0.45270892    -0.04900
N231        N  0.29235372  0.34302665  0.42258800    -0.57800
N232        N  0.31272020  0.30577768  0.54308866    -0.04600
N233        N  0.33020313  0.31048912  0.57316135    -0.60300
C234        C  0.31724661  0.33298223  0.59225175     0.96500
C235        C  0.31735072  0.33482653  0.40421387     0.96300
N236        N  0.30083497  0.21570626  0.45219466    -0.05900
N237        N  0.30603129  0.19853859  0.42170037    -0.58400
N238        N  0.31884320  0.23729160  0.54312466    -0.04000
N239        N  0.33683220  0.23497221  0.57326834    -0.59600
N240        N  0.30035114  0.21519487  0.54285119    -0.05900
N241        N  0.30546722  0.19729505  0.57250069    -0.58600
N242        N  0.31913083  0.23797442  0.45212352    -0.03600
N243        N  0.33710436  0.23649615  0.42159409    -0.59700
Mn244      Mn  0.31692501  0.27198301  0.49770232     1.18400
C245        C  0.32874746  0.21172530  0.40313664     0.98600
C246        C  0.32837325  0.20978103  0.59097278     0.99300
N247        N  0.22213257  0.31855625  0.45260731    -0.05900
N248        N  0.21687738  0.33617598  0.42268386    -0.62200
N249        N  0.20349446  0.29634758  0.54335095    -0.04700
N250        N  0.18554375  0.29825726  0.57388312    -0.62900
N251        N  0.22194677  0.31847309  0.54318842    -0.05400
N252        N  0.21686636  0.33600070  0.57332350    -0.62500
N253        N  0.20385654  0.29627907  0.45236556    -0.04300
N254        N  0.18583169  0.29820494  0.42226534    -0.63200
Mn255      Mn  0.25621135  0.32255147  0.49805456     1.10700
C256        C  0.19409862  0.32328088  0.40430652     0.99800
C257        C  0.19405218  0.32319558  0.59198377     0.99900
N258        N  0.23150596  0.20953384  0.54345263    -0.05400
N259        N  0.22919111  0.19188025  0.57412413    -0.60800
N260        N  0.21015791  0.22762727  0.45223874    -0.04700
N261        N  0.19288546  0.22225241  0.42210694    -0.57500
N262        N  0.23237092  0.20923199  0.45233835    -0.06000
N263        N  0.23076195  0.19102454  0.42224402    -0.60400
N264        N  0.20931818  0.22795729  0.54282720    -0.05000
N265        N  0.19138930  0.22316754  0.57273247    -0.57500
Mn266      Mn  0.26635802  0.21136791  0.49776138     1.20200
Mn267      Mn  0.20569477  0.26196285  0.49763114     1.10000
Cl268      Cl  0.26130149  0.26695933  0.49776510    -0.85500
C269        C  0.20396075  0.20055207  0.59179443     0.96800
C270        C  0.20594137  0.19930449  0.40392245     0.96600
C271        C  0.13392151  0.11263123  0.30093838     0.24000
C272        C  0.13720161  0.13249719  0.33250593    -0.24100
C273        C  0.11719260  0.13041862  0.36433462     0.19000
C274        C  0.09570093  0.10857466  0.36517602     0.24000
C275        C  0.09136162  0.09026430  0.33252424    -0.24000
C276        C  0.10924962  0.09380355  0.63206601     0.18900
F277        F  0.10529614  0.07731266  0.59930432    -0.14000
F278        F  0.15199522  0.11323590  0.60271353    -0.16300
F279        F  0.07842646  0.10589344  0.39763119    -0.16300
F280        F  0.11752965  0.15001662  0.39430837    -0.14000
C281        C  0.39689660  0.12262635  0.36307771     0.24000
C282        C  0.39483731  0.14225598  0.33101463    -0.24100
C283        C  0.41730089  0.14127729  0.63727006     0.19000
C284        C  0.43764149  0.11831339  0.63653437     0.24000
C285        C  0.43740876  0.09680331  0.33158465    -0.24000
C286        C  0.41886212  0.10128771  0.36413250     0.18900
F287        F  0.42130457  0.08410765  0.39654221    -0.14000
F288        F  0.37712472  0.12312552  0.39303093    -0.16300
F289        F  0.45860461  0.11798514  0.60803267    -0.16300
F290        F  0.42070973  0.16357370  0.61124738    -0.14000
C291        C  0.10592091  0.43570189  0.36138555     0.24000
C292        C  0.08448881  0.43642179  0.66513362    -0.24100
C293        C  0.08399931  0.41450928  0.63608453     0.19000
C294        C  0.10416902  0.39141055  0.63681435     0.24000
C295        C  0.12700922  0.39138317  0.33249809    -0.24000
C296        C  0.12739370  0.41380207  0.36108424     0.18900
F297        F  0.14904951  0.41520731  0.38816497    -0.14000
F298        F  0.10690474  0.45565026  0.72323060    -0.16300
F299        F  0.10215781  0.36991667  0.27731403    -0.16300
F300        F  0.06363419  0.41529504  0.60719014    -0.14000
C301        C  0.42690608  0.42474249  0.36240852     0.24000
C302        C  0.43074611  0.44286046  0.66342401    -0.24100
C303        C  0.41264973  0.43940731  0.63047592     0.19000
C304        C  0.38895391  0.41998098  0.63151746     0.24000
C305        C  0.38615642  0.40013537  0.32993380    -0.24000
C306        C  0.40596355  0.40245544  0.36156456     0.18900
F307        F  0.40598823  0.38263967  0.39129158    -0.14000
F308        F  0.44378556  0.42781929  0.39487175    -0.16300
F309        F  0.36987188  0.42061473  0.60110808    -0.16300
F310        F  0.41724363  0.45577905  0.59767529    -0.14000
C311        C  0.36042285  0.37872193  0.66423176     0.03600
C312        C  0.35040823  0.36726812  0.96122460    -0.12600
C313        C  0.32789662  0.34635560  0.96140723     0.01100
C314        C  0.31672307  0.33593104  0.99716020    -0.11100
C315        C  0.32567714  0.34780107  0.70023163     0.03600
C316        C  0.34673435  0.37008537  0.69973352    -0.10500
H317        H  0.35966308  0.37429649  0.93338608     0.09200
H318        H  0.29989639  0.31917831  0.99734386     0.06700
H319        H  0.35238309  0.38030693  0.72731909     0.06500
C320        C  0.14888091  0.36667028  0.66511324     0.03600
C321        C  0.16045039  0.35686256  0.96367185    -0.12600
C322        C  0.18097626  0.33401557  0.96347860     0.01100
C323        C  0.19137905  0.32282421  0.99904856    -0.11100
C324        C  0.18073749  0.33287718  0.70050296     0.03600
C325        C  0.15882609  0.35437231  0.70059802    -0.10500
H326        H  0.15350272  0.36612850  0.93593878     0.09200
H327        H  0.20787774  0.30571949  0.99892701     0.06700
H328        H  0.14968669  0.36148010  0.72846258     0.06500
C329        C  0.37176731  0.16550887  0.66470436     0.03600
C330        C  0.35960013  0.17557356  0.96138367    -0.12600
C331        C  0.33972362  0.19904580  0.96097961     0.01100
C332        C  0.32987318  0.21098058  0.66385120    -0.11100
C333        C  0.34006348  0.20007385  0.69968824     0.03600
C334        C  0.36130626  0.17787567  0.70008046    -0.10500
H335        H  0.36535359  0.16515653  0.93381571     0.09200
H336        H  0.31347155  0.22817633  0.66355844     0.06700
H337        H  0.36970822  0.17045103  0.72805612     0.06500
N338        N  0.00833190  0.47123427  0.99620772    -0.36200
N339        N  0.46495276  0.01793327  0.99786713    -0.56700
N340        N  0.01286959  0.06125729  0.00334831    -0.36200
N341        N  0.05666313  0.01437350  0.99911551    -0.56700
C342        C  0.48411276  0.45547311  0.99278918     0.27400
C343        C  0.03166843  0.45363328  0.00322171     0.27400
C344        C  0.48908345  0.07965399  0.00024025     0.27400
C345        C  0.03754571  0.07777383  0.00194714     0.27400
C346        C  0.44724760  0.49542005  0.00310469     0.36000
C347        C  0.44828513  0.04248872  0.99856370     0.36000
C348        C  0.07185125  0.49013122  0.99272105     0.36000
C349        C  0.07526599  0.03745539  0.99912441     0.36000
C350        C  0.49156633  0.42701056  0.98269644    -0.21400
C351        C  0.02176783  0.42609716  0.01406571    -0.21400
C352        C  0.49931409  0.10825339  0.99848247    -0.21400
C353        C  0.02967066  0.10713367  0.00128444    -0.21400
C354        C  0.41766073  0.00501240  0.99597500    -0.22500
C355        C  0.41890884  0.03489798  0.99674756    -0.22500
C356        C  0.10261695  0.99759578  0.99364256    -0.22500
C357        C  0.10391567  0.02743235  0.99664573    -0.22500
C358        C  0.45483737  0.46552498  0.99792735    -0.17800
C359        C  0.06168534  0.46101992  0.99796991    -0.17800
C360        C  0.06705505  0.06750446  0.00077582    -0.17800
C361        C  0.45883850  0.07178734  0.99992591    -0.17800
H362        H  0.47697100  0.40907488  0.97592645     0.15100
H363        H  0.03476614  0.40706797  0.02142566     0.15100
H364        H  0.48607307  0.12699519  0.68141266     0.15100
H365        H  0.04294110  0.12523928  0.67960464     0.15100
H366        H  0.39957048  0.49259423  0.01598006     0.13400
H367        H  0.40005226  0.04922229  0.99592050     0.13300
H368        H  0.11887414  0.48301666  0.97846609     0.13400
H369        H  0.12390908  0.04010394  0.99674761     0.13300
H370        H  0.00919029  0.49188823  0.98361865     0.26600
H371        H  0.01196482  0.03878511  0.00565047     0.26600
C372        C  0.15988366  0.15584945  0.66509167     0.03600
C373        C  0.16917116  0.16867564  0.96377537    -0.12600
C374        C  0.19256844  0.18854215  0.96315586     0.01100
C375        C  0.20502358  0.19827240  0.66462614    -0.11100
C376        C  0.19452510  0.18710519  0.70028349     0.03600
C377        C  0.17316988  0.16506494  0.70038415    -0.10500
H378        H  0.15872214  0.16321598  0.93628380     0.09200
H379        H  0.22207140  0.21479920  0.66448426     0.06700
H380        H  0.16720906  0.15528812  0.72823519     0.06500
N381        N  0.28941073  0.32450962  0.87690186    -0.05700
N382        N  0.29170494  0.34257495  0.90708561    -0.57800
N383        N  0.31122508  0.30671143  0.78561056    -0.05300
N384        N  0.32863546  0.31237179  0.75541340    -0.59900
N385        N  0.28898360  0.32507455  0.78614567    -0.04900
N386        N  0.29071439  0.34354332  0.75633975    -0.57800
N387        N  0.31167560  0.30616545  0.87612066    -0.04600
N388        N  0.32964781  0.31144227  0.90551317    -0.60300
C389        C  0.31702403  0.33428833  0.92431814     0.96500
C390        C  0.31565409  0.33548066  0.73772711     0.96300
N391        N  0.29944447  0.21554529  0.78553058    -0.05900
N392        N  0.30476396  0.19793483  0.75552556    -0.58400
N393        N  0.31786066  0.23741366  0.87613084    -0.04000
N394        N  0.33605961  0.23504337  0.90603765    -0.59600
N395        N  0.29943796  0.21525405  0.87597468    -0.05900
N396        N  0.30482506  0.19725278  0.90541689    -0.58600
N397        N  0.31766829  0.23787367  0.78504385    -0.03600
N398        N  0.33570868  0.23598525  0.75460332    -0.59700
Mn399      Mn  0.31564191  0.27212765  0.83068201     1.18400
C400        C  0.32748953  0.21088968  0.73673354     0.98600
C401        C  0.32781175  0.20974512  0.92367071     0.99300
N402        N  0.22062053  0.31841765  0.78650476    -0.05900
N403        N  0.21555290  0.33572244  0.75619716    -0.62200
N404        N  0.20230430  0.29626214  0.87750360    -0.04700
N405        N  0.18444721  0.29822334  0.90815991    -0.62900
N406        N  0.22073342  0.31841182  0.87714885    -0.05400
N407        N  0.21572528  0.33599567  0.90723626    -0.62500
N408        N  0.20240252  0.29609444  0.78641029    -0.04300
N409        N  0.18461044  0.29766484  0.75602842    -0.63200
Mn410      Mn  0.25481773  0.32260460  0.83173185     1.10700
C411        C  0.19297103  0.32256429  0.73772376     0.99800
C412        C  0.19300169  0.32322056  0.92611751     0.99900
N413        N  0.23065359  0.20950716  0.87722643    -0.05400
N414        N  0.22855552  0.19180026  0.90785579    -0.60800
N415        N  0.20882407  0.22755395  0.78617664    -0.04700
N416        N  0.19160361  0.22230983  0.75594034    -0.57500
N417        N  0.23108390  0.20921665  0.78611229    -0.06000
N418        N  0.22956918  0.19119522  0.75580895    -0.60400
N419        N  0.20839012  0.22783904  0.87680311    -0.05000
N420        N  0.19060380  0.22292360  0.90681071    -0.57500
Mn421      Mn  0.26522411  0.21137826  0.83128344     1.20200
Mn422      Mn  0.20444275  0.26184929  0.83169901     1.10000
Cl423      Cl  0.26005649  0.26699421  0.83136578    -0.85500
C424        C  0.20335602  0.20032830  0.92569480     0.96800
C425        C  0.20474816  0.19950521  0.73752591     0.96600
C426        C  0.13251139  0.11373882  0.63300290     0.24000
C427        C  0.13608465  0.13300206  0.66522529    -0.24100
C428        C  0.11659159  0.12993410  0.69752794     0.19000
C429        C  0.09553159  0.10766455  0.69820778     0.24000
C430        C  0.09085877  0.09006550  0.66496305    -0.24000
C431        C  0.11016533  0.09258335  0.96825580     0.18900
F432        F  0.10715705  0.07484143  0.93649827    -0.14000
F433        F  0.15311835  0.11189213  0.93914342    -0.16300
F434        F  0.07893825  0.10390213  0.73110535    -0.16300
F435        F  0.11694977  0.14894364  0.72817036    -0.14000
C436        C  0.39302847  0.11896112  0.69330684     0.24000
C437        C  0.39425488  0.14162745  0.66511310    -0.24100
C438        C  0.41514143  0.13865697  0.96744794     0.19000
C439        C  0.43532855  0.11557787  0.96750048     0.24000
C440        C  0.43674740  0.09611977  0.66519959    -0.24000
C441        C  0.41457866  0.09710985  0.69413260     0.18900
F442        F  0.41343324  0.07645080  0.72281954    -0.14000
F443        F  0.37052609  0.11733978  0.71950772    -0.16300
F444        F  0.45428608  0.11282140  0.93678767    -0.16300
F445        F  0.41717624  0.15888168  0.93832978    -0.14000
C446        C  0.10604121  0.43508795  0.69442321     0.24000
C447        C  0.08391831  0.43681509  0.99884211    -0.24100
C448        C  0.08249022  0.41354966  0.97180810     0.19000
C449        C  0.10317701  0.39092197  0.97263761     0.24000
C450        C  0.12648015  0.39057451  0.66531481    -0.24000
C451        C  0.12728854  0.41299715  0.69385443     0.18900
F452        F  0.14915006  0.41418787  0.72065844    -0.14000
F453        F  0.10870305  0.45905892  0.05320291    -0.16300
F454        F  0.10133134  0.36952616  0.61009398    -0.16300
F455        F  0.06086193  0.41264128  0.94462972    -0.14000
C456        C  0.42537883  0.42548570  0.69674841     0.24000
C457        C  0.43065404  0.44328800  0.99745326    -0.24100
C458        C  0.40802472  0.44490863  0.96959042     0.19000
C459        C  0.38512843  0.42449407  0.96999447     0.24000
C460        C  0.38460954  0.40104767  0.66397930    -0.24000
C461        C  0.40387533  0.40372797  0.69619323     0.18900
F462        F  0.40285837  0.38477550  0.72688259    -0.14000
F463        F  0.44168329  0.42897903  0.72966066    -0.16300
F464        F  0.36252663  0.42827201  0.94474565    -0.16300
F465        F  0.40786938  0.46658769  0.94226405    -0.14000
C466        C  0.36008432  0.87862552  0.99517040     0.03600
C467        C  0.35035282  0.86705326  0.29373065    -0.12600
C468        C  0.32755136  0.84648968  0.29348125     0.01100
C469        C  0.31599214  0.83606063  0.32899638    -0.11100
C470        C  0.32569970  0.84717502  0.03078288     0.03600
C471        C  0.34685909  0.86934482  0.03061887    -0.10500
H472        H  0.36003803  0.87380216  0.26603817     0.09200
H473        H  0.29906567  0.81941030  0.32885288     0.06700
H474        H  0.35298480  0.87906678  0.05837156     0.06500
C475        C  0.14944914  0.86672329  0.99756173     0.03600
C476        C  0.16121127  0.85630866  0.29534597    -0.12600
C477        C  0.18162304  0.83334750  0.29493867     0.01100
C478        C  0.19158120  0.82155717  0.33034713    -0.11100
C479        C  0.18039356  0.83204475  0.03288211     0.03600
C480        C  0.15893417  0.85398475  0.03300717    -0.10500
H481        H  0.15500990  0.86624027  0.26772270     0.09200
H482        H  0.20821043  0.80457648  0.33008881     0.06700
H483        H  0.14978309  0.86100254  0.06089122     0.06500
C484        C  0.37261688  0.66623955  0.99610978     0.03600
C485        C  0.36143522  0.67671084  0.29301550    -0.12600
C486        C  0.34133441  0.69997225  0.29269389     0.01100
C487        C  0.33070643  0.71190012  0.99501720    -0.11100
C488        C  0.34196668  0.70204200  0.03073836     0.03600
C489        C  0.36378800  0.68046569  0.03109998    -0.10500
H490        H  0.36795569  0.66684408  0.26536156     0.09200
H491        H  0.31425104  0.72904432  0.99469699     0.06700
H492        H  0.37357044  0.67492607  0.05897477     0.06500
N493        N  0.00929839  0.97123830  0.32901682    -0.36200
N494        N  0.46570768  0.51844987  0.33048636    -0.56700
N495        N  0.01277111  0.56182478  0.32989132    -0.36200
N496        N  0.05631632  0.51484854  0.33159178    -0.56700
C497        C  0.48351543  0.95524731  0.32945202     0.27400
C498        C  0.03261006  0.95314727  0.33357203     0.27400
C499        C  0.48959578  0.58001381  0.33374755     0.27400
C500        C  0.03734952  0.57812000  0.33445597     0.27400
C501        C  0.44632599  0.99566885  0.33504838     0.36000
C502        C  0.44920427  0.54298506  0.32715970     0.36000
C503        C  0.07324323  0.99021919  0.32908275     0.36000
C504        C  0.07488160  0.53789468  0.32871437     0.36000
C505        C  0.49104372  0.92632061  0.32218740    -0.21400
C506        C  0.02257129  0.92485916  0.33978184    -0.21400
C507        C  0.49944906  0.60821653  0.34088905    -0.21400
C508        C  0.02925053  0.60705123  0.34110774    -0.21400
C509        C  0.41871732  0.50550708  0.32328861    -0.22500
C510        C  0.42008364  0.53539378  0.32206741    -0.22500
C511        C  0.10194892  0.49785897  0.32244098    -0.22500
C512        C  0.10337385  0.52773334  0.32410634    -0.22500
C513        C  0.45413474  0.96561595  0.33228148    -0.17800
C514        C  0.06277220  0.96092277  0.33109236    -0.17800
C515        C  0.06685163  0.56797643  0.33135697    -0.17800
C516        C  0.45954111  0.57224086  0.33023202    -0.17800
H517        H  0.47655895  0.90807392  0.31659720     0.15100
H518        H  0.03541492  0.90526914  0.34453414     0.15100
H519        H  0.48804315  0.62714546  0.98054100     0.15100
H520        H  0.04293665  0.62482992  0.01722573     0.15100
H521        H  0.39800728  0.99328589  0.34292872     0.13400
H522        H  0.40147684  0.54978091  0.31830538     0.13300
H523        H  0.12121895  0.98344548  0.32207724     0.13400
H524        H  0.12340563  0.54026899  0.32229532     0.13300
H525        H  0.01021677  0.99290453  0.32046398     0.26600
H526        H  0.01202032  0.54035268  0.32044556     0.26600
C527        C  0.16017271  0.65525137  0.99774572     0.03600
C528        C  0.17110539  0.66721944  0.29496696    -0.12600
C529        C  0.19461934  0.68696974  0.29441150     0.01100
C530        C  0.20571550  0.69724944  0.99693786    -0.11100
C531        C  0.19543478  0.68603226  0.03265807     0.03600
C532        C  0.17385936  0.66418844  0.03291842    -0.10500
H533        H  0.16041144  0.66224277  0.26749883     0.09200
H534        H  0.22289301  0.71364236  0.99663910     0.06700
H535        H  0.16804852  0.65436702  0.06079154     0.06500
N536        N  0.28987433  0.82481643  0.20828125    -0.05700
N537        N  0.29174404  0.84270864  0.23870561    -0.57800
N538        N  0.31190611  0.80698765  0.11709149    -0.05300
N539        N  0.32904025  0.81230070  0.08651233    -0.59900
N540        N  0.28936873  0.82498122  0.11727500    -0.04900
N541        N  0.29061579  0.84286852  0.08679347    -0.57800
N542        N  0.31231377  0.80670102  0.20763425    -0.04600
N543        N  0.33002050  0.81198002  0.23729617    -0.60300
C544        C  0.31702144  0.83456621  0.25617125     0.96500
C545        C  0.31554522  0.83478066  0.06814533     0.96300
N546        N  0.30125994  0.71626708  0.11682871    -0.05900
N547        N  0.30669474  0.69909021  0.08642521    -0.58400
N548        N  0.31932412  0.73811508  0.20774638    -0.04000
N549        N  0.33739605  0.73603983  0.23783432    -0.59600
N550        N  0.30125931  0.71566408  0.20736788    -0.05900
N551        N  0.30677677  0.69775014  0.23684968    -0.58600
N552        N  0.31930527  0.73873555  0.11673322    -0.03600
N553        N  0.33732500  0.73740413  0.08622541    -0.59700
Mn554      Mn  0.31674283  0.77274786  0.16234185     1.18400
C555        C  0.32926952  0.71249418  0.06784481     0.98600
C556        C  0.32944147  0.71061437  0.25536206     0.99300
N557        N  0.22099418  0.81778905  0.11822771    -0.05900
N558        N  0.21541065  0.83517472  0.08819114    -0.62200
N559        N  0.20335015  0.79554755  0.20927584    -0.04700
N560        N  0.18549505  0.79745120  0.23991916    -0.62900
N561        N  0.22145704  0.81796160  0.20866218    -0.05400
N562        N  0.21623298  0.83566505  0.23855717    -0.62500
N563        N  0.20300710  0.79528097  0.11831351    -0.04300
N564        N  0.18488426  0.79677998  0.08827825    -0.63200
Mn565      Mn  0.25532749  0.82241397  0.16311593     1.10700
C566        C  0.19277649  0.82186116  0.07004924     0.99800
C567        C  0.19368821  0.82269064  0.25756531     0.99900
N568        N  0.23253499  0.70887760  0.20868979    -0.05400
N569        N  0.23057413  0.69091204  0.23907446    -0.60800
N570        N  0.21021072  0.72682515  0.11805339    -0.04700
N571        N  0.19264617  0.72116160  0.08832675    -0.57500
N572        N  0.23276608  0.70884817  0.11758714    -0.06000
N573        N  0.23110794  0.69066570  0.08745819    -0.60400
N574        N  0.21010031  0.72700872  0.20851727    -0.05000
N575        N  0.19232637  0.72167334  0.23841253    -0.57500
Mn576      Mn  0.26706858  0.71138427  0.16262739     1.20200
Mn577      Mn  0.20565866  0.76107071  0.16355943     1.10000
Cl578      Cl  0.26120039  0.76689001  0.16293678    -0.85500
C579        C  0.20527455  0.69905660  0.25701299     0.96800
C580        C  0.20586612  0.69847060  0.06977816     0.96600
C581        C  0.13195029  0.61375246  0.96542897     0.24000
C582        C  0.13618136  0.63259569  0.99796694    -0.24100
C583        C  0.11710395  0.62932990  0.03065490     0.19000
C584        C  0.09600774  0.60710775  0.03152382     0.24000
C585        C  0.09060207  0.58999739  0.99801782    -0.24000
C586        C  0.10954977  0.59320953  0.29835659     0.18900
F587        F  0.10547908  0.57628937  0.26601718    -0.14000
F588        F  0.15261383  0.61164048  0.26866411    -0.16300
F589        F  0.08006440  0.60296339  0.06490784    -0.16300
F590        F  0.11785991  0.64813771  0.06149956    -0.14000
C591        C  0.39768015  0.62327553  0.02984133     0.24000
C592        C  0.39498765  0.64198198  0.99683973    -0.24100
C593        C  0.41766033  0.64093843  0.30080851     0.19000
C594        C  0.43796305  0.61796242  0.30058014     0.24000
C595        C  0.43758895  0.59642465  0.99837107    -0.24000
C596        C  0.41977763  0.60204593  0.03136367     0.18900
F597        F  0.42294232  0.58599894  0.06469254    -0.14000
F598        F  0.37838612  0.62450175  0.06031238    -0.16300
F599        F  0.45860934  0.61694068  0.27169323    -0.16300
F600        F  0.42080383  0.66259677  0.27378002    -0.14000
C601        C  0.10540442  0.93421747  0.02805676     0.24000
C602        C  0.08489832  0.93661191  0.33129390    -0.24100
C603        C  0.08497525  0.91527280  0.30148911     0.19000
C604        C  0.10498556  0.89203703  0.30224231     0.24000
C605        C  0.12712480  0.89075735  0.99768888    -0.24000
C606        C  0.12691054  0.91237612  0.02740710     0.18900
F607        F  0.14800095  0.91310466  0.05532880    -0.14000
F608        F  0.10604251  0.95452375  0.39098065    -0.16300
F609        F  0.10355885  0.87122365  0.94015938    -0.16300
F610        F  0.06523263  0.91668425  0.27186760    -0.14000
C611        C  0.42629681  0.92362720  0.02708193     0.24000
C612        C  0.42996918  0.94339733  0.33152675    -0.24100
C613        C  0.40859318  0.94395562  0.30190289     0.19000
C614        C  0.38567896  0.92359853  0.30195263     0.24000
C615        C  0.38414049  0.90096420  0.99528598    -0.24000
C616        C  0.40459158  0.90205917  0.02627854     0.18900
F617        F  0.40438448  0.88177100  0.05543140    -0.14000
F618        F  0.44403116  0.92541746  0.05888178    -0.16300
F619        F  0.36401446  0.92676219  0.27513243    -0.16300
F620        F  0.40964149  0.96458947  0.27317904    -0.14000
C621        C  0.36087787  0.87845200  0.32946024     0.03600
C622        C  0.35138777  0.86481578  0.62684596    -0.12600
C623        C  0.32822338  0.84468627  0.62682015     0.01100
C624        C  0.31602262  0.83518959  0.66237702    -0.11100
C625        C  0.32694051  0.84638158  0.36469680     0.03600
C626        C  0.34865383  0.86800491  0.36490871    -0.10500
H627        H  0.36193126  0.87000585  0.59915148     0.09200
H628        H  0.29912813  0.81850497  0.66246765     0.06700
H629        H  0.35591716  0.87659815  0.39285841     0.06500
C630        C  0.14918982  0.86659237  0.33107167     0.03600
C631        C  0.16092764  0.85566542  0.62771069    -0.12600
C632        C  0.18147548  0.83280994  0.62752568     0.01100
C633        C  0.19141632  0.82120071  0.66308769    -0.11100
C634        C  0.18081509  0.83231243  0.36611143     0.03600
C635        C  0.15910520  0.85403813  0.36645013    -0.10500
H636        H  0.15452645  0.86535314  0.60000707     0.09200
H637        H  0.20804531  0.80422099  0.66300817     0.06700
H638        H  0.15008960  0.86104986  0.39441826     0.06500
C639        C  0.37274110  0.66602477  0.32874665     0.03600
C640        C  0.36146025  0.67594953  0.62726995    -0.12600
C641        C  0.34095160  0.69885158  0.62652094     0.01100
C642        C  0.33117919  0.71178462  0.32821328    -0.11100
C643        C  0.34123650  0.70056760  0.36393607     0.03600
C644        C  0.36246662  0.67842271  0.36416594    -0.10500
H645        H  0.36847094  0.66615230  0.59977615     0.09200
H646        H  0.31483754  0.72903834  0.32806717     0.06700
H647        H  0.37093297  0.67102332  0.39211308     0.06500
N648        N  0.00939342  0.97083664  0.66097686    -0.36200
N649        N  0.46556692  0.51806820  0.66451692    -0.56700
N650        N  0.01259561  0.56128516  0.66245566    -0.36200
N651        N  0.05620640  0.51446503  0.66538746    -0.56700
C652        C  0.48414613  0.95465826  0.66576471     0.27400
C653        C  0.03271980  0.95299240  0.66690941     0.27400
C654        C  0.48956219  0.57930638  0.66921430     0.27400
C655        C  0.03709764  0.57757549  0.66780003     0.27400
C656        C  0.44664187  0.99498788  0.66068586     0.36000
C657        C  0.44925062  0.54266550  0.66040017     0.36000
C658        C  0.07308170  0.98998212  0.66030054     0.36000
C659        C  0.07472581  0.53752437  0.66211175     0.36000
C660        C  0.49206073  0.92560589  0.67171352    -0.21400
C661        C  0.02277157  0.92492600  0.67486072    -0.21400
C662        C  0.49943219  0.60717352  0.67828304    -0.21400
C663        C  0.02887580  0.60636334  0.67525578    -0.21400
C664        C  0.41877143  0.50535106  0.65474204    -0.22500
C665        C  0.42028899  0.53523331  0.65372899    -0.22500
C666        C  0.10182868  0.49750820  0.65606351    -0.22500
C667        C  0.10321266  0.52740017  0.65740009    -0.22500
C668        C  0.45469175  0.96488993  0.66264899    -0.17800
C669        C  0.06281830  0.96069596  0.66343084    -0.17800
C670        C  0.06664106  0.56758363  0.66465288    -0.17800
C671        C  0.45954843  0.57182259  0.66462366    -0.17800
H672        H  0.47799809  0.90667283  0.67422993     0.15100
H673        H  0.03569936  0.90557465  0.68081298     0.15100
H674        H  0.48645543  0.62771653  0.34583426     0.15100
H675        H  0.04323653  0.62594496  0.34449443     0.15100
H676        H  0.39823620  0.99260308  0.65365225     0.13400
H677        H  0.40187425  0.54974486  0.64920462     0.13300
H678        H  0.12073471  0.98330832  0.65004991     0.13400
H679        H  0.12320306  0.53997719  0.65527473     0.13300
H680        H  0.01031174  0.99211493  0.65065866     0.26600
H681        H  0.01194001  0.54006504  0.65191404     0.26600
C682        C  0.16141583  0.65435781  0.33053074     0.03600
C683        C  0.17015492  0.66769818  0.62818015    -0.12600
C684        C  0.19369910  0.68740411  0.62768747     0.01100
C685        C  0.20693293  0.69632161  0.32975277    -0.11100
C686        C  0.19647039  0.68521841  0.36545613     0.03600
C687        C  0.17495743  0.66336158  0.36570705    -0.10500
H688        H  0.15962408  0.66256354  0.60064825     0.09200
H689        H  0.22400870  0.71281978  0.32952872     0.06700
H690        H  0.16892986  0.65367925  0.39360049     0.06500
N691        N  0.29045337  0.82345087  0.54154223    -0.05700
N692        N  0.29239799  0.84116764  0.57212543    -0.57800
N693        N  0.31251236  0.80559570  0.45037244    -0.05300
N694        N  0.32985274  0.81099145  0.42000898    -0.59900
N695        N  0.29014171  0.82379946  0.45060277    -0.04900
N696        N  0.29168619  0.84188031  0.42036842    -0.57800
N697        N  0.31277141  0.80518086  0.54084358    -0.04600
N698        N  0.33045210  0.81015153  0.57062445    -0.60300
C699        C  0.31754319  0.83269476  0.58966093     0.96500
C700        C  0.31661865  0.83371421  0.40181224     0.96300
N701        N  0.30105274  0.71474571  0.45050116    -0.05900
N702        N  0.30618573  0.69756614  0.41999210    -0.58400
N703        N  0.31928506  0.73670036  0.54118002    -0.04000
N704        N  0.33744328  0.73451491  0.57115855    -0.59600
N705        N  0.30092192  0.71449870  0.54111795    -0.05900
N706        N  0.30629202  0.69665749  0.57073876    -0.58600
N707        N  0.31913932  0.73717601  0.45015608    -0.03600
N708        N  0.33687725  0.73583572  0.41938513    -0.59700
Mn709      Mn  0.31695815  0.77126097  0.49562512     1.18400
C710        C  0.32861181  0.71097134  0.40108544     0.98600
C711        C  0.32923151  0.70927847  0.58896239     0.99300
N712        N  0.22168803  0.81726476  0.45105895    -0.05900
N713        N  0.21609133  0.83491117  0.42128122    -0.62200
N714        N  0.20345214  0.79509239  0.54186336    -0.04700
N715        N  0.18542702  0.79705514  0.57232248    -0.62900
N716        N  0.22178877  0.81732039  0.54157652    -0.05400
N717        N  0.21653689  0.83496956  0.57153722    -0.62500
N718        N  0.20358948  0.79484452  0.45093137    -0.04300
N719        N  0.18535998  0.79668371  0.42104908    -0.63200
Mn720      Mn  0.25594127  0.82149837  0.49622862     1.10700
C721        C  0.19329454  0.82187222  0.40311966     0.99800
C722        C  0.19374445  0.82214194  0.59023435     0.99900
N723        N  0.23212188  0.70844451  0.54206216    -0.05400
N724        N  0.22993637  0.69074406  0.57268652    -0.60800
N725        N  0.21046749  0.72619424  0.45090088    -0.04700
N726        N  0.19329796  0.72068736  0.42070709    -0.57500
N727        N  0.23278712  0.70792969  0.45108347    -0.06000
N728        N  0.23137590  0.68970309  0.42100481    -0.60400
N729        N  0.20979282  0.72669457  0.54143394    -0.05000
N730        N  0.19188010  0.72173151  0.57128812    -0.57500
Mn731      Mn  0.26681426  0.71036936  0.49628307     1.20200
Mn732      Mn  0.20581201  0.76060200  0.49621829     1.10000
Cl733      Cl  0.26137644  0.76593860  0.49609926    -0.85500
C734        C  0.20462234  0.69919724  0.59030317     0.96800
C735        C  0.20655682  0.69781597  0.40259330     0.96600
C736        C  0.13317379  0.61269501  0.29898255     0.24000
C737        C  0.13713706  0.63208854  0.33094241    -0.24100
C738        C  0.11750741  0.62981048  0.36321073     0.19000
C739        C  0.09582936  0.60816152  0.36409869     0.24000
C740        C  0.09097790  0.59023863  0.33122244    -0.24000
C741        C  0.10922099  0.59311707  0.63167735     0.18900
F742        F  0.10532497  0.57615425  0.59933763    -0.14000
F743        F  0.15221148  0.61189315  0.60213098    -0.16300
F744        F  0.07894137  0.60523747  0.39688339    -0.16300
F745        F  0.11839296  0.64899216  0.39363799    -0.14000
C746        C  0.39394002  0.61976692  0.35810694     0.24000
C747        C  0.39496828  0.64193228  0.32916552    -0.24100
C748        C  0.41829824  0.64127335  0.63648361     0.19000
C749        C  0.43865666  0.61832909  0.63613596     0.24000
C750        C  0.43735991  0.59645576  0.33014380    -0.24000
C751        C  0.41548940  0.59798558  0.35938296     0.18900
F752        F  0.41459658  0.57787242  0.38877598    -0.14000
F753        F  0.37162546  0.61852039  0.38463366    -0.16300
F754        F  0.45984364  0.61791618  0.60793724    -0.16300
F755        F  0.42184277  0.66348818  0.61036600    -0.14000
C756        C  0.10582306  0.93461271  0.36133108     0.24000
C757        C  0.08500015  0.93641656  0.66353217    -0.24100
C758        C  0.08432791  0.91442671  0.63458494     0.19000
C759        C  0.10440969  0.89123930  0.63526543     0.24000
C760        C  0.12682393  0.89061396  0.33139468    -0.24000
C761        C  0.12712890  0.91255528  0.36066453     0.18900
F762        F  0.14855811  0.91337162  0.38810873    -0.14000
F763        F  0.10772686  0.95562616  0.72143040    -0.16300
F764        F  0.10238843  0.87057658  0.27487013    -0.16300
F765        F  0.06382533  0.91518891  0.60586686    -0.14000
C766        C  0.42855965  0.92128585  0.36023076     0.24000
C767        C  0.43060083  0.94261123  0.66243301    -0.24100
C768        C  0.41227091  0.93958508  0.62964931     0.19000
C769        C  0.38884571  0.91982013  0.63032757     0.24000
C770        C  0.38479602  0.90078356  0.32992447    -0.24000
C771        C  0.40699980  0.89961036  0.35855609     0.18900
F772        F  0.40850985  0.87699513  0.38436869    -0.14000
F773        F  0.44863419  0.92025663  0.38947510    -0.16300
F774        F  0.36955856  0.92072588  0.60016731    -0.16300
F775        F  0.41643537  0.95661046  0.59735419    -0.14000
C776        C  0.36092272  0.87777822  0.66219322     0.03600
C777        C  0.35051479  0.86584970  0.95973200    -0.12600
C778        C  0.32771400  0.84529398  0.95970947     0.01100
C779        C  0.31565888  0.83563682  0.99529431    -0.11100
C780        C  0.32622558  0.84655701  0.69786378     0.03600
C781        C  0.34747026  0.86867811  0.69765258    -0.10500
H782        H  0.36081640  0.87154116  0.93203113     0.09200
H783        H  0.29895572  0.81876075  0.99540208     0.06700
H784        H  0.35337525  0.87851241  0.72539861     0.06500
C785        C  0.14908898  0.86626592  0.66336415     0.03600
C786        C  0.16168668  0.85644330  0.96196557    -0.12600
C787        C  0.18171564  0.83315882  0.96170035     0.01100
C788        C  0.19124591  0.82115211  0.99721529    -0.11100
C789        C  0.18063683  0.83215115  0.69876978     0.03600
C790        C  0.15906298  0.85400455  0.69887177    -0.10500
H791        H  0.15589296  0.86656342  0.93430693     0.09200
H792        H  0.20766975  0.80397531  0.99712832     0.06700
H793        H  0.15018015  0.86138976  0.72675338     0.06500
C794        C  0.37257380  0.66550083  0.66323950     0.03600
C795        C  0.35957140  0.67533264  0.96054407    -0.12600
C796        C  0.33984194  0.69891521  0.95980844     0.01100
C797        C  0.33041281  0.71068726  0.66182801    -0.11100
C798        C  0.34043427  0.69983969  0.69777908     0.03600
C799        C  0.36185043  0.67785061  0.69845402    -0.10500
H800        H  0.36441252  0.66418544  0.93322219     0.09200
H801        H  0.31388781  0.72776111  0.66133747     0.06700
H802        H  0.37014866  0.67054100  0.72654169     0.06500
N803        N  0.00920134  0.97098748  0.99493139    -0.36200
N804        N  0.46564302  0.51843163  0.99837828    -0.56700
N805        N  0.01243697  0.56144095  0.99765033    -0.36200
N806        N  0.05572337  0.51470723  0.99830861    -0.56700
C807        C  0.48398557  0.95453285  0.99555682     0.27400
C808        C  0.03253973  0.95281191  0.99890128     0.27400
C809        C  0.48993833  0.57949364  0.99429214     0.27400
C810        C  0.03704590  0.57755782  0.00310674     0.27400
C811        C  0.44633375  0.99491977  0.99587447     0.36000
C812        C  0.44929412  0.54297520  0.00299473     0.36000
C813        C  0.07327310  0.98991320  0.99604459     0.36000
C814        C  0.07420048  0.53767588  0.99356742     0.36000
C815        C  0.49192352  0.92533108  0.99971997    -0.21400
C816        C  0.02251064  0.92439971  0.00406489    -0.21400
C817        C  0.50038327  0.60725595  0.98512915    -0.21400
C818        C  0.02900410  0.60605117  0.01266582    -0.21400
C819        C  0.41914764  0.50541502  0.01088780    -0.22500
C820        C  0.42026558  0.53532064  0.00979189    -0.22500
C821        C  0.10063759  0.49756043  0.98431599    -0.22500
C822        C  0.10229874  0.52743223  0.98591732    -0.22500
C823        C  0.45446797  0.96484599  0.99502188    -0.17800
C824        C  0.06273718  0.96063857  0.99715704    -0.17800
C825        C  0.06646323  0.56769015  0.99795268    -0.17800
C826        C  0.45974269  0.57216807  0.99896373    -0.17800
H827        H  0.47784577  0.90639026  0.00198936     0.15100
H828        H  0.03534833  0.90472843  0.00821151     0.15100
H829        H  0.48642839  0.62650005  0.68433160     0.15100
H830        H  0.04273015  0.62526909  0.67930215     0.15100
H831        H  0.39764861  0.99237952  0.99555773     0.13400
H832        H  0.40146761  0.54951269  0.01316111     0.13300
H833        H  0.12139369  0.98330118  0.99053019     0.13400
H834        H  0.12224468  0.53987005  0.98218279     0.13300
H835        H  0.01008560  0.99283300  0.98706990     0.26600
H836        H  0.01151651  0.54063931  0.98560480     0.26600
C837        C  0.16029853  0.65499457  0.66374917     0.03600
C838        C  0.16960760  0.66841023  0.96227139    -0.12600
C839        C  0.19314917  0.68809661  0.96167883     0.01100
C840        C  0.20590663  0.69686470  0.66303352    -0.11100
C841        C  0.19522577  0.68598602  0.69873376     0.03600
C842        C  0.17362389  0.66421241  0.69898590    -0.10500
H843        H  0.15879216  0.66363270  0.93483571     0.09200
H844        H  0.22309301  0.71324912  0.66280147     0.06700
H845        H  0.16745224  0.65466928  0.72690980     0.06500
N846        N  0.28977821  0.82372300  0.87472815    -0.05700
N847        N  0.29188778  0.84163405  0.90508042    -0.57800
N848        N  0.31163548  0.80573321  0.78352927    -0.05300
N849        N  0.32901791  0.81118766  0.75322389    -0.59900
N850        N  0.28936350  0.82406081  0.78385298    -0.04900
N851        N  0.29104958  0.84230557  0.75378933    -0.57800
N852        N  0.31202603  0.80536745  0.87408777    -0.04600
N853        N  0.32982638  0.81048188  0.90371606    -0.60300
C854        C  0.31707082  0.83322534  0.92255139     0.96500
C855        C  0.31597811  0.83412749  0.73522288     0.96300
N856        N  0.29988017  0.71477230  0.78383008    -0.05900
N857        N  0.30507069  0.69738879  0.75354533    -0.58400
N858        N  0.31813924  0.73674817  0.87449051    -0.04000
N859        N  0.33619328  0.73457802  0.90456628    -0.59600
N860        N  0.29977539  0.71454384  0.87438671    -0.05900
N861        N  0.30506639  0.69669498  0.90404070    -0.58600
N862        N  0.31806137  0.73712747  0.78341371    -0.03600
N863        N  0.33594025  0.73551155  0.75280257    -0.59700
Mn864      Mn  0.31600100  0.77132811  0.82886026     1.18400
C865        C  0.32764353  0.71057013  0.73468328     0.98600
C866        C  0.32792937  0.70935716  0.92237161     0.99300
N867        N  0.22092128  0.81756376  0.78442121    -0.05900
N868        N  0.21565567  0.83494879  0.75425620    -0.62200
N869        N  0.20278896  0.79554601  0.87553026    -0.04700
N870        N  0.18512796  0.79743081  0.90638520    -0.62900
N871        N  0.22119795  0.81771324  0.87506012    -0.05400
N872        N  0.21635820  0.83524453  0.90526151    -0.62500
N873        N  0.20271514  0.79523068  0.78441852    -0.04300
N874        N  0.18474660  0.79686722  0.75422461    -0.63200
Mn875      Mn  0.25520805  0.82178826  0.82953913     1.10700
C876        C  0.19296476  0.82183521  0.73595841     0.99800
C877        C  0.19377462  0.82239041  0.92434929     0.99900
N878        N  0.23105784  0.70880512  0.87551491    -0.05400
N879        N  0.22904522  0.69125768  0.90630963    -0.60800
N880        N  0.20930099  0.72665563  0.78443107    -0.04700
N881        N  0.19214392  0.72132513  0.75416490    -0.57500
N882        N  0.23160158  0.70836674  0.78446171    -0.06000
N883        N  0.23019996  0.69030978  0.75420274    -0.60400
N884        N  0.20879915  0.72714240  0.87504626    -0.05000
N885        N  0.19109565  0.72238586  0.90519273    -0.57500
Mn886      Mn  0.26565263  0.71058684  0.82961751     1.20200
Mn887      Mn  0.20484118  0.76104940  0.82981759     1.10000
Cl888      Cl  0.26043190  0.76619149  0.82947384    -0.85500
C889        C  0.20392243  0.69990580  0.92422929     0.96800
C890        C  0.20539671  0.69853842  0.73585091     0.96600
C891        C  0.13262469  0.61288572  0.63228449     0.24000
C892        C  0.13622648  0.63250084  0.66408970    -0.24100
C893        C  0.11655117  0.63009863  0.69626856     0.19000
C894        C  0.09534695  0.60799506  0.69738308     0.24000
C895        C  0.09067932  0.58996538  0.66455368    -0.24000
C896        C  0.10842094  0.59411983  0.96462982     0.18900
F897        F  0.10365542  0.57830165  0.93147279    -0.14000
F898        F  0.15100445  0.61336987  0.93464620    -0.16300
F899        F  0.07866625  0.60478147  0.73030639    -0.16300
F900        F  0.11691823  0.64959693  0.72635727    -0.14000
C901        C  0.39359799  0.61904516  0.69227941     0.24000
C902        C  0.39505916  0.64166274  0.66402816    -0.24100
C903        C  0.41410296  0.63711796  0.96456480     0.19000
C904        C  0.43374813  0.61357426  0.96451522     0.24000
C905        C  0.43743861  0.59614100  0.66476831    -0.24000
C906        C  0.41503503  0.59711732  0.69333872     0.18900
F907        F  0.41354539  0.57635496  0.72186488    -0.14000
F908        F  0.37097275  0.61753373  0.71830071    -0.16300
F909        F  0.44969315  0.60798359  0.93150879    -0.16300
F910        F  0.41469276  0.65553169  0.93327592    -0.14000
C911        C  0.10673018  0.93508364  0.69260692     0.24000
C912        C  0.08489216  0.93640666  0.99753281    -0.24100
C913        C  0.08554832  0.91547255  0.96725885     0.19000
C914        C  0.10568489  0.89237769  0.96802733     0.24000
C915        C  0.12687853  0.89038779  0.66354073    -0.24000
C916        C  0.12794769  0.91293419  0.69189577     0.18900
F917        F  0.15001150  0.91415718  0.71839904    -0.14000
F918        F  0.10509138  0.95380859  0.05809999    -0.16300
F919        F  0.10130324  0.86925942  0.60874561    -0.16300
F920        F  0.06623388  0.91712419  0.93715759    -0.14000
C921        C  0.42578803  0.92445841  0.69516089     0.24000
C922        C  0.43028244  0.94266121  0.99504784    -0.24100
C923        C  0.41066745  0.94103969  0.96342693     0.19000
C924        C  0.38709889  0.92145890  0.96438785     0.24000
C925        C  0.38499584  0.90022420  0.66218536    -0.24000
C926        C  0.40455763  0.90243777  0.69412589     0.18900
F927        F  0.40410042  0.88275291  0.72399824    -0.14000
F928        F  0.44244718  0.92740330  0.72784749    -0.16300
F929        F  0.36675296  0.92335089  0.93558043    -0.16300
F930        F  0.41373010  0.95928599  0.93214419    -0.14000
C931        C  0.86063772  0.37775204  0.99766574     0.03600
C932        C  0.85199052  0.36436271  0.29455910    -0.12600
C933        C  0.82877316  0.34427234  0.29480878     0.01100
C934        C  0.81667146  0.33496743  0.33052153    -0.11100
C935        C  0.82608039  0.34613748  0.03289232     0.03600
C936        C  0.84672714  0.36880127  0.03286633    -0.10500
H937        H  0.86252651  0.36924636  0.26677434     0.09200
H938        H  0.79978202  0.31827947  0.33085848     0.06700
H939        H  0.85185677  0.37909182  0.06058985     0.06500
C940        C  0.64938832  0.36609784  0.99901805     0.03600
C941        C  0.66193965  0.35701190  0.29688592    -0.12600
C942        C  0.68218249  0.33391019  0.29687969     0.01100
C943        C  0.69201658  0.32234842  0.33248752    -0.11100
C944        C  0.68013661  0.33137154  0.03486105     0.03600
C945        C  0.65785012  0.35247942  0.03446142    -0.10500
H946        H  0.65575953  0.36670492  0.26909838     0.09200
H947        H  0.70846997  0.30519819  0.33252427     0.06700
H948        H  0.64745766  0.35815429  0.06206758     0.06500
C949        C  0.87191868  0.16498335  0.99799128     0.03600
C950        C  0.86097656  0.17581737  0.29501438    -0.12600
C951        C  0.84038949  0.19863675  0.29427515     0.01100
C952        C  0.82943482  0.20989499  0.99625251    -0.11100
C953        C  0.83991336  0.19963257  0.03223630     0.03600
C954        C  0.86168832  0.17802451  0.03304626    -0.10500
H955        H  0.86778599  0.16587927  0.26752834     0.09200
H956        H  0.81280178  0.22686086  0.99563361     0.06700
H957        H  0.87051764  0.17149907  0.06116958     0.06500
N958        N  0.50942344  0.47148885  0.32850657    -0.36200
N959        N  0.96562573  0.01822551  0.33244189    -0.56700
N960        N  0.51277433  0.06147638  0.33290147    -0.36200
N961        N  0.55611254  0.01396610  0.33245276    -0.56700
C962        C  0.98440006  0.45518879  0.33290549     0.27400
C963        C  0.53271907  0.45345971  0.33358970     0.27400
C964        C  0.98965538  0.07980223  0.33601472     0.27400
C965        C  0.53765772  0.07752436  0.32968649     0.27400
C966        C  0.94701389  0.49531486  0.32624903     0.36000
C967        C  0.94914984  0.04282032  0.32954726     0.36000
C968        C  0.57324365  0.49050920  0.32848305     0.36000
C969        C  0.57480864  0.03693022  0.33467385     0.36000
C970        C  0.99233715  0.42641312  0.34086666    -0.21400
C971        C  0.52270538  0.42522634  0.34019941    -0.21400
C972        C  0.99958280  0.10801744  0.34286679    -0.21400
C973        C  0.53020986  0.10671418  0.32451692    -0.21400
C974        C  0.91862354  0.00540109  0.32497639    -0.22500
C975        C  0.92001765  0.03529983  0.32434876    -0.22500
C976        C  0.60191408  0.99681527  0.33746979    -0.22500
C977        C  0.60327076  0.02673342  0.33831416    -0.22500
C978        C  0.95498275  0.46526149  0.32901282    -0.17800
C979        C  0.56285250  0.46123469  0.33107233    -0.17800
C980        C  0.56698258  0.06703203  0.33235488    -0.17800
C981        C  0.95954462  0.07206567  0.33278195    -0.17800
H982        H  0.97831723  0.40757365  0.34471482     0.15100
H983        H  0.53555012  0.40569774  0.34537373     0.15100
H984        H  0.98705338  0.12835885  0.00351666     0.15100
H985        H  0.54353513  0.12570511  0.99381937     0.15100
H986        H  0.89876111  0.49291112  0.31779088     0.13400
H987        H  0.90142966  0.04973457  0.32075492     0.13300
H988        H  0.62116598  0.48375840  0.32078096     0.13400
H989        H  0.62317945  0.03939661  0.34087634     0.13300
H990        H  0.51035431  0.49307902  0.31963131     0.26600
H991        H  0.51162002  0.03951816  0.33957080     0.26600
C992        C  0.65956254  0.15522819  0.99889710     0.03600
C993        C  0.67070978  0.16657999  0.29721359    -0.12600
C994        C  0.69358904  0.18704935  0.29692942     0.01100
C995        C  0.70507466  0.19711724  0.99896215    -0.11100
C996        C  0.69404184  0.18627551  0.03453910     0.03600
C997        C  0.67223006  0.16468999  0.03443330    -0.10500
H998        H  0.66092825  0.16041171  0.26952941     0.09200
H999        H  0.72227447  0.21348515  0.99900598     0.06700
H1000       H  0.66538163  0.15536182  0.06223804     0.06500
N1001       N  0.79032739  0.32327406  0.20987978    -0.05700
N1002       N  0.79256904  0.34094072  0.24048556    -0.57800
N1003       N  0.81159410  0.30534561  0.11845693    -0.05300
N1004       N  0.82886274  0.31073956  0.08804638    -0.59900
N1005       N  0.78935750  0.32370550  0.11894527    -0.04900
N1006       N  0.79096871  0.34195993  0.08888789    -0.57800
N1007       N  0.81252000  0.30485491  0.20892959    -0.04600
N1008       N  0.83041162  0.30968485  0.23854064    -0.60300
C1009       C  0.81776513  0.33229482  0.25776354     0.96500
C1010       C  0.81579640  0.33368602  0.07015151     0.96300
N1011       N  0.79960815  0.21461978  0.11842618    -0.05900
N1012       N  0.80459689  0.19731530  0.08801037    -0.58400
N1013       N  0.81861355  0.23634427  0.20894815    -0.04000
N1014       N  0.83684485  0.23415587  0.23883352    -0.59600
N1015       N  0.80018825  0.21419305  0.20901360    -0.05900
N1016       N  0.80558642  0.19638231  0.23865878    -0.58600
N1017       N  0.81790353  0.23688129  0.11800398    -0.03600
N1018       N  0.83567738  0.23527395  0.08728873    -0.59700
Mn1019     Mn  0.81617718  0.27094713  0.16355654     1.18400
C1020       C  0.82715684  0.21045922  0.06907330     0.98600
C1021       C  0.82861405  0.20897041  0.25672772     0.99300
N1022       N  0.72079356  0.31720540  0.12022947    -0.05900
N1023       N  0.71528534  0.33449096  0.09005304    -0.62200
N1024       N  0.70330019  0.29540526  0.21153018    -0.04700
N1025       N  0.68553027  0.29766987  0.24221646    -0.62900
N1026       N  0.72173268  0.31754580  0.21072020    -0.05400
N1027       N  0.71683244  0.33542133  0.24052054    -0.62500
N1028       N  0.70247733  0.29495987  0.12066781    -0.04300
N1029       N  0.68418200  0.29657026  0.09083242    -0.63200
Mn1030     Mn  0.75546429  0.32147530  0.16493782     1.10700
C1031       C  0.69229423  0.32144874  0.07230997     0.99800
C1032       C  0.69415654  0.32282610  0.25969724     0.99900
N1033       N  0.73144237  0.20838672  0.21097711    -0.05400
N1034       N  0.72941071  0.19048871  0.24141754    -0.60800
N1035       N  0.70888862  0.22648207  0.12043452    -0.04700
N1036       N  0.69135910  0.22120663  0.09052742    -0.57500
N1037       N  0.73119674  0.20820406  0.11993824    -0.06000
N1038       N  0.72941291  0.19020498  0.08964823    -0.60400
N1039       N  0.70928519  0.22685307  0.21099025    -0.05000
N1040       N  0.69165380  0.22186810  0.24112852    -0.57500
Mn1041     Mn  0.76569787  0.21031091  0.16462858     1.20200
Mn1042     Mn  0.70496838  0.26082977  0.16594124     1.10000
Cl1043     Cl  0.76057616  0.26589502  0.16477143    -0.85500
C1044       C  0.70437796  0.19908094  0.25962252     0.96800
C1045       C  0.70435617  0.19842858  0.07187115     0.96600
C1046       C  0.63353205  0.11200888  0.96797078     0.24000
C1047       C  0.63563671  0.13268617  0.99876397    -0.24100
C1048       C  0.61459054  0.13142584  0.02940409     0.19000
C1049       C  0.59324128  0.10945062  0.03009067     0.24000
C1050       C  0.59052555  0.08979459  0.99853679    -0.24000
C1051       C  0.61217130  0.09004379  0.30221688     0.18900
F1052       F  0.61069271  0.07077369  0.27189053    -0.14000
F1053       F  0.65637582  0.10832345  0.27508617    -0.16300
F1054       F  0.57458622  0.10782648  0.06127404    -0.16300
F1055       F  0.61389967  0.15190423  0.05830925    -0.14000
C1056       C  0.89422712  0.11994132  0.02932458     0.24000
C1057       C  0.89440961  0.14110750  0.99902042    -0.24100
C1058       C  0.91767063  0.14086918  0.30349675     0.19000
C1059       C  0.93800846  0.11791209  0.30329170     0.24000
C1060       C  0.93709406  0.09588953  0.00097526    -0.24000
C1061       C  0.91601215  0.09841929  0.03110432     0.18900
F1062       F  0.91588385  0.07926849  0.06165194    -0.14000
F1063       F  0.87244256  0.11929145  0.05666589    -0.16300
F1064       F  0.95868711  0.11694282  0.27444194    -0.16300
F1065       F  0.92081702  0.16256128  0.27651493    -0.14000
C1066       C  0.60134556  0.43068979  0.03132721     0.24000
C1067       C  0.58504193  0.43700816  0.33174190    -0.24100
C1068       C  0.58517227  0.41531988  0.30239353     0.19000
C1069       C  0.60547758  0.39236150  0.30338782     0.24000
C1070       C  0.62673001  0.39006456  0.99872681    -0.24000
C1071       C  0.62329282  0.40929164  0.03108327     0.18900
F1072       F  0.64173767  0.40842707  0.06216615    -0.14000
F1073       F  0.60621569  0.45577509  0.39093826    -0.16300
F1074       F  0.60841776  0.37534920  0.93520036    -0.16300
F1075       F  0.56521065  0.41611223  0.27299676    -0.14000
C1076       C  0.92429567  0.42589503  0.03158141     0.24000
C1077       C  0.93091473  0.44297017  0.32915045    -0.24100
C1078       C  0.91306560  0.43914719  0.29606427     0.19000
C1079       C  0.88974785  0.41924473  0.29689617     0.24000
C1080       C  0.88441673  0.40055780  0.99797674    -0.24000
C1081       C  0.90318514  0.40372756  0.03066196     0.18900
F1082       F  0.90213679  0.38484098  0.06142327    -0.14000
F1083       F  0.93975022  0.43014665  0.06507055    -0.16300
F1084       F  0.87094293  0.41943954  0.26617984    -0.16300
F1085       F  0.91761740  0.45550260  0.26324055    -0.14000
C1086       C  0.86150815  0.37768725  0.32971308     0.03600
C1087       C  0.85200006  0.36424518  0.62883421    -0.12600
C1088       C  0.82897545  0.34397002  0.62887990     0.01100
C1089       C  0.81690651  0.33440914  0.66447716    -0.11100
C1090       C  0.82690171  0.34659232  0.36584672     0.03600
C1091       C  0.84800794  0.36884870  0.36528944    -0.10500
H1092       H  0.86250646  0.36941577  0.60111389     0.09200
H1093       H  0.80013496  0.31760144  0.66465339     0.06700
H1094       H  0.85371842  0.37898800  0.39289720     0.06500
C1095       C  0.64996395  0.36766859  0.33242662     0.03600
C1096       C  0.66167960  0.35676206  0.63066144    -0.12600
C1097       C  0.68250331  0.33416093  0.63032356     0.01100
C1098       C  0.69248149  0.32245067  0.66581246    -0.11100
C1099       C  0.68133003  0.33353069  0.36806121     0.03600
C1100       C  0.65981914  0.35543990  0.36802146    -0.10500
H1101       H  0.65521386  0.36650492  0.60302109     0.09200
H1102       H  0.70925282  0.30561200  0.66561705     0.06700
H1103       H  0.65083090  0.36278016  0.39585571     0.06500
C1104       C  0.87238910  0.16563376  0.33094604     0.03600
C1105       C  0.86037031  0.17512433  0.62777990    -0.12600
C1106       C  0.83999240  0.19814853  0.62745070     0.01100
C1107       C  0.82994857  0.21057747  0.32956443    -0.11100
C1108       C  0.84024246  0.19998932  0.36550308     0.03600
C1109       C  0.86186615  0.17820214  0.36615102    -0.10500
H1110       H  0.86713057  0.16541929  0.60012016     0.09200
H1111       H  0.81333248  0.22756304  0.32907652     0.06700
H1112       H  0.87042486  0.17118536  0.39422528     0.06500
N1113       N  0.50904533  0.47100500  0.66281110    -0.36200
N1114       N  0.96564078  0.01761118  0.66323124    -0.56700
N1115       N  0.51246602  0.06145122  0.66315018    -0.36200
N1116       N  0.55616649  0.01437673  0.66525653    -0.56700
C1117       C  0.98433295  0.45464619  0.66754785     0.27400
C1118       C  0.53225944  0.45306687  0.66903808     0.27400
C1119       C  0.98933360  0.07908748  0.66801993     0.27400
C1120       C  0.53708040  0.07771542  0.66766956     0.27400
C1121       C  0.94684300  0.49472419  0.66082110     0.36000
C1122       C  0.94914933  0.04214410  0.65969951     0.36000
C1123       C  0.57277385  0.48980246  0.66190999     0.36000
C1124       C  0.57472213  0.03745680  0.66264438     0.36000
C1125       C  0.99235117  0.42578244  0.67476509    -0.21400
C1126       C  0.52214928  0.42512004  0.67733047    -0.21400
C1127       C  0.99905895  0.10711884  0.67646673    -0.21400
C1128       C  0.52898518  0.10663420  0.67446068    -0.21400
C1129       C  0.91883802  0.00467700  0.65404101    -0.22500
C1130       C  0.92016395  0.03457638  0.65344577    -0.22500
C1131       C  0.60193786  0.99741395  0.65754641    -0.22500
C1132       C  0.60328355  0.02731698  0.65889527    -0.22500
C1133       C  0.95488215  0.46469935  0.66393201    -0.17800
C1134       C  0.56239337  0.46060253  0.66560097    -0.17800
C1135       C  0.56662435  0.06755877  0.66480753    -0.17800
C1136       C  0.95933186  0.07136404  0.66382237    -0.17800
H1137       H  0.97838089  0.40686122  0.67818900     0.15100
H1138       H  0.53497713  0.40574311  0.68352193     0.15100
H1139       H  0.98664104  0.12754092  0.34787818     0.15100
H1140       H  0.54478457  0.12520189  0.32092163     0.15100
H1141       H  0.89851543  0.49224169  0.65287964     0.13400
H1142       H  0.90161959  0.04900157  0.64938841     0.13300
H1143       H  0.62031681  0.48277383  0.65122748     0.13400
H1144       H  0.62329945  0.03990206  0.65740677     0.13300
H1145       H  0.51008768  0.49221290  0.65225580     0.26600
H1146       H  0.51170960  0.04003372  0.65348500     0.26600
C1147       C  0.66033203  0.15449019  0.33284952     0.03600
C1148       C  0.66987656  0.16825743  0.62980712    -0.12600
C1149       C  0.69314599  0.18829462  0.62971920     0.01100
C1150       C  0.70504851  0.19721517  0.33239463    -0.11100
C1151       C  0.69411792  0.18653317  0.36809286     0.03600
C1152       C  0.67264335  0.16459507  0.36829342    -0.10500
H1153       H  0.65959066  0.16304775  0.60212764     0.09200
H1154       H  0.72194545  0.21389962  0.33223015     0.06700
H1155       H  0.66572952  0.15550887  0.39622308     0.06500
N1156       N  0.79100337  0.32373978  0.54333284    -0.05700
N1157       N  0.79311998  0.34116336  0.57419068    -0.57800
N1158       N  0.81247532  0.30596312  0.45178574    -0.05300
N1159       N  0.82973321  0.31127074  0.42129668    -0.59900
N1160       N  0.79036075  0.32448129  0.45233095    -0.04900
N1161       N  0.79204389  0.34271160  0.42223782    -0.57800
N1162       N  0.81307172  0.30516927  0.54243380    -0.04600
N1163       N  0.83074122  0.30962916  0.57238266    -0.60300
C1164       C  0.81808469  0.33217701  0.59171928     0.96500
C1165       C  0.81680519  0.33433143  0.40341683     0.96300
N1166       N  0.79987338  0.21514095  0.45166945    -0.05900
N1167       N  0.80485437  0.19778635  0.42129008    -0.58400
N1168       N  0.81873712  0.23659395  0.54234703    -0.04000
N1169       N  0.83686760  0.23409191  0.57232109    -0.59600
N1170       N  0.80006612  0.21465088  0.54226027    -0.05900
N1171       N  0.80516241  0.19669686  0.57184063    -0.58600
N1172       N  0.81828732  0.23730945  0.45129765    -0.03600
N1173       N  0.83611889  0.23558837  0.42064985    -0.59700
Mn1174     Mn  0.81669355  0.27135785  0.49692456     1.18400
C1175       C  0.82753972  0.21078927  0.40243075     0.98600
C1176       C  0.82827121  0.20895660  0.59008634     0.99300
N1177       N  0.72181903  0.31851911  0.45332637    -0.05900
N1178       N  0.71647987  0.33607430  0.42336618    -0.62200
N1179       N  0.70374440  0.29646459  0.54430986    -0.04700
N1180       N  0.68591000  0.29854006  0.57494959    -0.62900
N1181       N  0.72231069  0.31849949  0.54392540    -0.05400
N1182       N  0.71741134  0.33612282  0.57403543    -0.62500
N1183       N  0.70345316  0.29631086  0.45335009    -0.04300
N1184       N  0.68530410  0.29820690  0.42339181    -0.63200
Mn1185     Mn  0.75630409  0.32236598  0.49825263     1.10700
C1186       C  0.69355320  0.32321519  0.40527098     0.99800
C1187       C  0.69459092  0.32347421  0.59291452     0.99900
N1188       N  0.73134375  0.20941498  0.54389752    -0.05400
N1189       N  0.72915968  0.19161925  0.57442681    -0.60800
N1190       N  0.70926975  0.22759953  0.45314056    -0.04700
N1191       N  0.69165278  0.22212155  0.42338673    -0.57500
N1192       N  0.73142676  0.20914217  0.45294290    -0.06000
N1193       N  0.72946152  0.19081309  0.42305521    -0.60400
N1194       N  0.70927394  0.22798473  0.54372082    -0.05000
N1195       N  0.69155021  0.22316809  0.57383144    -0.57500
Mn1196     Mn  0.76576443  0.21108624  0.49772640     1.20200
Mn1197     Mn  0.70542124  0.26202000  0.49858704     1.10000
Cl1198     Cl  0.76105042  0.26671698  0.49785152    -0.85500
C1199       C  0.70414233  0.20038777  0.59252068     0.96800
C1200       C  0.70444935  0.19901980  0.40518838     0.96600
C1201       C  0.63514526  0.11033639  0.30308716     0.24000
C1202       C  0.63656679  0.13179459  0.33298024    -0.24100
C1203       C  0.61484557  0.13136416  0.36279300     0.19000
C1204       C  0.59305816  0.10981064  0.36318249     0.24000
C1205       C  0.59115495  0.08924597  0.33258578    -0.24000
C1206       C  0.60968213  0.09293301  0.63253015     0.18900
F1207       F  0.60633428  0.07570599  0.60032483    -0.14000
F1208       F  0.65276885  0.11207914  0.60355770    -0.16300
F1209       F  0.57326437  0.10941254  0.39314960    -0.16300
F1210       F  0.61392396  0.15229735  0.39109562    -0.14000
C1211       C  0.89388926  0.11964412  0.36069409     0.24000
C1212       C  0.89489436  0.14178893  0.33173410    -0.24100
C1213       C  0.91720547  0.14031186  0.63582056     0.19000
C1214       C  0.93775082  0.11753558  0.63530057     0.24000
C1215       C  0.93737334  0.09633892  0.33278468    -0.24000
C1216       C  0.91543839  0.09783842  0.36196366     0.18900
F1217       F  0.91444338  0.07764366  0.39124823    -0.14000
F1218       F  0.87156169  0.11841923  0.38720129    -0.16300
F1219       F  0.95866601  0.11716270  0.60673804    -0.16300
F1220       F  0.92030709  0.16238689  0.60939595    -0.14000
C1221       C  0.60612345  0.43557472  0.36163896     0.24000
C1222       C  0.58451504  0.43627938  0.66625012    -0.24100
C1223       C  0.58416746  0.41425543  0.63735502     0.19000
C1224       C  0.60457999  0.39135229  0.63809517     0.24000
C1225       C  0.62748585  0.39154407  0.33233547    -0.24000
C1226       C  0.62770820  0.41379907  0.36116084     0.18900
F1227       F  0.64930623  0.41517355  0.38832813    -0.14000
F1228       F  0.60669997  0.45572274  0.72436221    -0.16300
F1229       F  0.60301465  0.37057124  0.27646385    -0.16300
F1230       F  0.56377272  0.41479490  0.60849204    -0.14000
C1231       C  0.92568779  0.42556155  0.36247090     0.24000
C1232       C  0.93086341  0.44237377  0.66401017    -0.24100
C1233       C  0.91278939  0.43891154  0.63106278     0.19000
C1234       C  0.88931455  0.41924659  0.63194708     0.24000
C1235       C  0.88551803  0.40028935  0.32940637    -0.24000
C1236       C  0.90462183  0.40337124  0.36175858     0.18900
F1237       F  0.90395275  0.38436506  0.39239914    -0.14000
F1238       F  0.94183310  0.42936403  0.39546763    -0.16300
F1239       F  0.87010149  0.41997509  0.60169622    -0.16300
F1240       F  0.91725941  0.45542226  0.59836144    -0.14000
C1241       C  0.86140320  0.37739126  0.66412882     0.03600
C1242       C  0.85190721  0.36420570  0.96227710    -0.12600
C1243       C  0.82919448  0.34355157  0.96199359     0.01100
C1244       C  0.81674721  0.33409346  0.99739211    -0.11100
C1245       C  0.82699972  0.34599156  0.69989181     0.03600
C1246       C  0.84795076  0.36836220  0.69959248    -0.10500
H1247       H  0.86266844  0.36937526  0.93473691     0.09200
H1248       H  0.80019782  0.31706537  0.99735587     0.06700
H1249       H  0.85367902  0.37838590  0.72728469     0.06500
C1250       C  0.64954068  0.36694979  0.66636054     0.03600
C1251       C  0.66318309  0.35678145  0.96387527    -0.12600
C1252       C  0.68321605  0.33350267  0.96392300     0.01100
C1253       C  0.69211164  0.32121208  0.99950448    -0.11100
C1254       C  0.68142385  0.33299003  0.70157734     0.03600
C1255       C  0.65954476  0.35456498  0.70179852    -0.10500
H1256       H  0.65866266  0.36749000  0.93622876     0.09200
H1257       H  0.70879891  0.30429163  0.99973621     0.06700
H1258       H  0.65043872  0.36162396  0.72970311     0.06500
C1259       C  0.87173112  0.16450743  0.66352401     0.03600
C1260       C  0.86021417  0.17476599  0.96202134    -0.12600
C1261       C  0.83978743  0.19770547  0.96109498     0.01100
C1262       C  0.82968070  0.20982910  0.66296746    -0.11100
C1263       C  0.83992671  0.19882268  0.69871402     0.03600
C1264       C  0.86131216  0.17679060  0.69895874    -0.10500
H1265       H  0.86667357  0.16449464  0.93462089     0.09200
H1266       H  0.81323053  0.22697980  0.66279964     0.06700
H1267       H  0.86984987  0.16943324  0.72688945     0.06500
N1268       N  0.50892312  0.47104659  0.99918506    -0.36200
N1269       N  0.96544375  0.01785268  0.99992974    -0.56700
N1270       N  0.51236287  0.06116931  0.00156161    -0.36200
N1271       N  0.55609806  0.01420793  0.99627103    -0.56700
C1272       C  0.98372815  0.45522992  0.00269776     0.27400
C1273       C  0.53202208  0.45283905  0.99310908     0.27400
C1274       C  0.98955454  0.07968902  0.00299483     0.27400
C1275       C  0.53706129  0.07760337  0.99896613     0.27400
C1276       C  0.94658637  0.49515654  0.99440308     0.36000
C1277       C  0.94883253  0.04244487  0.99957574     0.36000
C1278       C  0.57271982  0.48932841  0.00098006     0.36000
C1279       C  0.57473664  0.03725020  0.99727984     0.36000
C1280       C  0.99176553  0.42686367  0.01278662    -0.21400
C1281       C  0.52151274  0.42514193  0.98389269    -0.21400
C1282       C  0.99971143  0.10834106  0.00296037    -0.21400
C1283       C  0.52925722  0.10692497  0.99666903    -0.21400
C1284       C  0.91823496  0.00499318  0.99582717    -0.22500
C1285       C  0.91952175  0.03488725  0.99636934    -0.22500
C1286       C  0.60211913  0.99738431  0.99228519    -0.22500
C1287       C  0.60339958  0.02718272  0.99578220    -0.22500
C1288       C  0.95432478  0.46511873  0.99803332    -0.17800
C1289       C  0.56220422  0.46010876  0.99739869    -0.17800
C1290       C  0.56656658  0.06731953  0.99852508    -0.17800
C1291       C  0.95935315  0.07174240  0.00168280    -0.17800
H1292       H  0.97780729  0.40821735  0.01834687     0.15100
H1293       H  0.53377097  0.40523266  0.97890858     0.15100
H1294       H  0.98596451  0.12644580  0.68213099     0.15100
H1295       H  0.54292101  0.12556142  0.67779451     0.15100
H1296       H  0.89862412  0.49303590  0.98323617     0.13400
H1297       H  0.90073554  0.04925037  0.99455193     0.13300
H1298       H  0.62052300  0.48264497  0.01011896     0.13400
H1299       H  0.62340515  0.03980402  0.99680090     0.13300
H1300       H  0.50994990  0.49188162  0.01109278     0.26600
H1301       H  0.51146775  0.03883869  0.00608142     0.26600
C1302       C  0.65993655  0.15533739  0.66518614     0.03600
C1303       C  0.66992838  0.16764223  0.96344790    -0.12600
C1304       C  0.69326657  0.18758046  0.96336849     0.01100
C1305       C  0.70508040  0.19769034  0.66528131    -0.11100
C1306       C  0.69441101  0.18645088  0.70080045     0.03600
C1307       C  0.67298963  0.16449406  0.70064186    -0.10500
H1308       H  0.65987186  0.16208161  0.93571981     0.09200
H1309       H  0.72213242  0.21421270  0.66535559     0.06700
H1310       H  0.66674166  0.15472399  0.72840222     0.06500
N1311       N  0.79121286  0.32274856  0.87673887    -0.05700
N1312       N  0.79345914  0.34042825  0.90730017    -0.57800
N1313       N  0.81255318  0.30496024  0.78531855    -0.05300
N1314       N  0.82985611  0.31042216  0.75494430    -0.59900
N1315       N  0.79045358  0.32348742  0.78597135    -0.04900
N1316       N  0.79217640  0.34189193  0.75610768    -0.57800
N1317       N  0.81329650  0.30419719  0.87589337    -0.04600
N1318       N  0.83111875  0.30894733  0.90562900    -0.60300
C1319       C  0.81854729  0.33169079  0.92470853     0.96500
C1320       C  0.81693759  0.33357834  0.73728723     0.96300
N1321       N  0.79983454  0.21405905  0.78506633    -0.05900
N1322       N  0.80477704  0.19663673  0.75474798    -0.58400
N1323       N  0.81877097  0.23557292  0.87561667    -0.04000
N1324       N  0.83685690  0.23319153  0.90562482    -0.59600
N1325       N  0.80011887  0.21361227  0.87558642    -0.05900
N1326       N  0.80520281  0.19574639  0.90526571    -0.58600
N1327       N  0.81828226  0.23620288  0.78463275    -0.03600
N1328       N  0.83610490  0.23438142  0.75397808    -0.59700
Mn1329     Mn  0.81678334  0.27031022  0.83031183     1.18400
C1330       C  0.82749439  0.20954286  0.73585540     0.98600
C1331       C  0.82828536  0.20809760  0.92346564     0.99300
N1332       N  0.72195825  0.31764246  0.78683323    -0.05900
N1333       N  0.71670706  0.33520889  0.75684654    -0.62200
N1334       N  0.70405583  0.29558833  0.87796314    -0.04700
N1335       N  0.68647004  0.29766439  0.90885224    -0.62900
N1336       N  0.72267053  0.31757590  0.87743592    -0.05400
N1337       N  0.71806477  0.33517978  0.90762961    -0.62500
N1338       N  0.70349126  0.29552013  0.78687688    -0.04300
N1339       N  0.68533675  0.29751263  0.75691028    -0.63200
Mn1340     Mn  0.75648714  0.32136542  0.83175605     1.10700
C1341       C  0.69372090  0.32247085  0.73872681     0.99800
C1342       C  0.69541285  0.32252593  0.92679206     0.99900
N1343       N  0.73137581  0.20843710  0.87733822    -0.05400
N1344       N  0.72921438  0.19068865  0.90792787    -0.60800
N1345       N  0.70929847  0.22677467  0.78657431    -0.04700
N1346       N  0.69183119  0.22157775  0.75657684    -0.57500
N1347       N  0.73140322  0.20824829  0.78632444    -0.06000
N1348       N  0.72954222  0.19015337  0.75615600    -0.60400
N1349       N  0.70936751  0.22708132  0.87721580    -0.05000
N1350       N  0.69171716  0.22237094  0.90742765    -0.57500
Mn1351     Mn  0.76575942  0.21006354  0.83112200     1.20200
Mn1352     Mn  0.70550767  0.26116044  0.83212507     1.10000
Cl1353     Cl  0.76114174  0.26571994  0.83130470    -0.85500
C1354       C  0.70428553  0.19958632  0.92613062     0.96800
C1355       C  0.70465776  0.19858780  0.73815862     0.96600
C1356       C  0.63290793  0.11292815  0.63339913     0.24000
C1357       C  0.63603070  0.13268342  0.66514238    -0.24100
C1358       C  0.61604210  0.13028844  0.69694832     0.19000
C1359       C  0.59494624  0.10809035  0.69780010     0.24000
C1360       C  0.59072447  0.08989466  0.66502096    -0.24000
C1361       C  0.61045374  0.09187021  0.96696890     0.18900
F1362       F  0.60801351  0.07379120  0.93546163    -0.14000
F1363       F  0.65426095  0.11046774  0.93925549    -0.16300
F1364       F  0.57787443  0.10498278  0.73038002    -0.16300
F1365       F  0.61599576  0.14991516  0.72689600    -0.14000
C1366       C  0.89331566  0.11819966  0.69232938     0.24000
C1367       C  0.89428558  0.14070141  0.66386538    -0.24100
C1368       C  0.91633099  0.13910443  0.96965691     0.19000
C1369       C  0.93649817  0.11602503  0.96972207     0.24000
C1370       C  0.93705528  0.09552544  0.66419503    -0.24000
C1371       C  0.91498064  0.09648915  0.69321436     0.18900
F1372       F  0.91406353  0.07594066  0.72205660    -0.14000
F1373       F  0.87096525  0.11659214  0.71876461    -0.16300
F1374       F  0.95595395  0.11367071  0.93951164    -0.16300
F1375       F  0.91888815  0.15984986  0.94126797    -0.14000
C1376       C  0.60605447  0.43512454  0.69558894     0.24000
C1377       C  0.58423042  0.43572209  0.99782520    -0.24100
C1378       C  0.58861148  0.41781224  0.96470690     0.19000
C1379       C  0.60828068  0.39430325  0.96592415     0.24000
C1380       C  0.62690638  0.39070296  0.66660177    -0.24000
C1381       C  0.62746676  0.41314415  0.69514539     0.18900
F1382       F  0.64926954  0.41448996  0.72202160    -0.14000
F1383       F  0.59765220  0.44748606  0.06394153    -0.16300
F1384       F  0.60199637  0.36948869  0.61129920    -0.16300
F1385       F  0.57325930  0.42265338  0.93126807    -0.14000
C1386       C  0.92587551  0.42459034  0.69706196     0.24000
C1387       C  0.93016209  0.44288268  0.99803587    -0.24100
C1388       C  0.91259313  0.43891810  0.96467150     0.19000
C1389       C  0.88892005  0.41944293  0.96551646     0.24000
C1390       C  0.88535623  0.39993283  0.66407183    -0.24000
C1391       C  0.90475407  0.40246767  0.69615940     0.18900
F1392       F  0.90427463  0.38299362  0.72628317    -0.14000
F1393       F  0.94229789  0.42793101  0.72990009    -0.16300
F1394       F  0.87002553  0.41995414  0.93489426    -0.16300
F1395       F  0.91773693  0.45475522  0.93154932    -0.14000
C1396       C  0.86061699  0.87839806  0.99547787     0.03600
C1397       C  0.85132348  0.86557106  0.29324157    -0.12600
C1398       C  0.82791578  0.84568580  0.29307895     0.01100
C1399       C  0.81533798  0.83654928  0.32859048    -0.11100
C1400       C  0.82593381  0.84696003  0.03068389     0.03600
C1401       C  0.84718427  0.86905827  0.03078851    -0.10500
H1402       H  0.86206388  0.87062796  0.26563270     0.09200
H1403       H  0.79826619  0.82004692  0.32862377     0.06700
H1404       H  0.85320120  0.87866842  0.05864848     0.06500
C1405       C  0.64905261  0.86641775  0.99638997     0.03600
C1406       C  0.66164732  0.85668164  0.29567822    -0.12600
C1407       C  0.68181397  0.83350760  0.29499224     0.01100
C1408       C  0.69116165  0.82099050  0.33023957    -0.11100
C1409       C  0.68030629  0.83228096  0.03231528     0.03600
C1410       C  0.65854747  0.85394675  0.03204427    -0.10500
H1411       H  0.65653371  0.86748113  0.26827100     0.09200
H1412       H  0.70789632  0.80411577  0.32990122     0.06700
H1413       H  0.64917365  0.86094750  0.05979723     0.06500
C1414       C  0.87332105  0.66641956  0.99672822     0.03600
C1415       C  0.86091749  0.67618545  0.29279780    -0.12600
C1416       C  0.84067445  0.69933154  0.29226851     0.01100
C1417       C  0.83143740  0.71178925  0.99441218    -0.11100
C1418       C  0.84095869  0.70085664  0.03057815     0.03600
C1419       C  0.86219687  0.67872337  0.03171116    -0.10500
H1420       H  0.86748588  0.66618928  0.26524477     0.09200
H1421       H  0.81492884  0.72886926  0.99358653     0.06700
H1422       H  0.87001181  0.67119520  0.05995743     0.06500
N1423       N  0.50832462  0.97106833  0.33477819    -0.36200
N1424       N  0.96544047  0.51832827  0.33047252    -0.56700
N1425       N  0.51300917  0.56201475  0.32912780    -0.36200
N1426       N  0.55665032  0.51502739  0.33157257    -0.56700
C1427       C  0.98463373  0.95487466  0.33268786     0.27400
C1428       C  0.53145630  0.95261944  0.33050372     0.27400
C1429       C  0.98936463  0.57981470  0.33465828     0.27400
C1430       C  0.53756774  0.57835097  0.33357937     0.27400
C1431       C  0.94710324  0.99521208  0.32892163     0.36000
C1432       C  0.94904375  0.54290401  0.32672371     0.36000
C1433       C  0.57252759  0.98931580  0.33476021     0.36000
C1434       C  0.57520171  0.53810722  0.32910315     0.36000
C1435       C  0.99260094  0.92580642  0.33826317    -0.21400
C1436       C  0.52095263  0.92451236  0.32392565    -0.21400
C1437       C  0.99922988  0.60796000  0.34215416    -0.21400
C1438       C  0.52945516  0.60732364  0.33984056    -0.21400
C1439       C  0.91866775  0.50547992  0.32080963    -0.22500
C1440       C  0.92006566  0.53539327  0.32023305    -0.22500
C1441       C  0.60247120  0.49812960  0.32417204    -0.22500
C1442       C  0.60378710  0.52801423  0.32556507    -0.22500
C1443       C  0.95515410  0.96509782  0.33017847    -0.17800
C1444       C  0.56174514  0.96009362  0.33303733    -0.17800
C1445       C  0.56708034  0.56818414  0.33105818    -0.17800
C1446       C  0.95932935  0.57211946  0.33060162    -0.17800
H1447       H  0.97856011  0.90686293  0.34086027     0.15100
H1448       H  0.53323977  0.90441631  0.32070792     0.15100
H1449       H  0.98604976  0.62594250  0.02181572     0.15100
H1450       H  0.54488981  0.62346317  0.97646710     0.15100
H1451       H  0.89864298  0.99285141  0.32273337     0.13400
H1452       H  0.90158962  0.54986879  0.31594345     0.13300
H1453       H  0.62072244  0.98244220  0.33847999     0.13400
H1454       H  0.62379236  0.54062558  0.32419173     0.13300
H1455       H  0.50931552  0.99248426  0.34438559     0.26600
H1456       H  0.51228466  0.54049370  0.31993077     0.26600
C1457       C  0.66076188  0.65414624  0.99694940     0.03600
C1458       C  0.67061373  0.66796451  0.29513456    -0.12600
C1459       C  0.69400303  0.68782726  0.29462659     0.01100
C1460       C  0.70624446  0.69595782  0.99653467    -0.11100
C1461       C  0.69452011  0.68611936  0.03228764     0.03600
C1462       C  0.67230772  0.66490822  0.03247321    -0.10500
H1463       H  0.65993887  0.66290480  0.26766977     0.09200
H1464       H  0.72340940  0.71236277  0.99637567     0.06700
H1465       H  0.66424265  0.65673790  0.06039527     0.06500
N1466       N  0.78998560  0.82425419  0.20792886    -0.05700
N1467       N  0.79203052  0.84203604  0.23843745    -0.57800
N1468       N  0.81166337  0.80634865  0.11657018    -0.05300
N1469       N  0.82885282  0.81164389  0.08603054    -0.59900
N1470       N  0.78933811  0.82460665  0.11693383    -0.04900
N1471       N  0.79080108  0.84266855  0.08665460    -0.57800
N1472       N  0.81228797  0.80596215  0.20717600    -0.04600
N1473       N  0.83007311  0.81102375  0.23684924    -0.60300
C1474       C  0.81724399  0.83364773  0.25586756     0.96500
C1475       C  0.81562203  0.83439823  0.06789824     0.96300
N1476       N  0.80012787  0.71557497  0.11645704    -0.05900
N1477       N  0.80531795  0.69832262  0.08603627    -0.58400
N1478       N  0.81869615  0.73734771  0.20719412    -0.04000
N1479       N  0.83690538  0.73513106  0.23711043    -0.59600
N1480       N  0.80038261  0.71509911  0.20706140    -0.05900
N1481       N  0.80585114  0.69719524  0.23659471    -0.58600
N1482       N  0.81830312  0.73793690  0.11620056    -0.03600
N1483       N  0.83615968  0.73647490  0.08556161    -0.59700
Mn1484     Mn  0.81626490  0.77199898  0.16179280     1.18400
C1485       C  0.82783351  0.71164270  0.06722197     0.98600
C1486       C  0.82878310  0.70983767  0.25483108     0.99300
N1487       N  0.72084228  0.81799856  0.11783896    -0.05900
N1488       N  0.71534565  0.83538585  0.08774788    -0.62200
N1489       N  0.70312975  0.79591372  0.20898119    -0.04700
N1490       N  0.68538421  0.79786184  0.23972221    -0.62900
N1491       N  0.72141383  0.81818354  0.20840681    -0.05400
N1492       N  0.71639621  0.83585005  0.23842805    -0.62500
N1493       N  0.70268557  0.79562121  0.11798235    -0.04300
N1494       N  0.68453813  0.79722668  0.08798368    -0.63200
Mn1495     Mn  0.75530953  0.82229934  0.16278836     1.10700
C1496       C  0.69255227  0.82224116  0.06969130     0.99800
C1497       C  0.69381116  0.82297208  0.25749076     0.99900
N1498       N  0.73162208  0.70910236  0.20849713    -0.05400
N1499       N  0.72972795  0.69136229  0.23910443    -0.60800
N1500       N  0.70925921  0.72704547  0.11774303    -0.04700
N1501       N  0.69171767  0.72150213  0.08791210    -0.57500
N1502       N  0.73167086  0.70888741  0.11739416    -0.06000
N1503       N  0.72996039  0.69073935  0.08725059    -0.60400
N1504       N  0.70932237  0.72739693  0.20832485    -0.05000
N1505       N  0.69170154  0.72241003  0.23848995    -0.57500
Mn1506     Mn  0.76603719  0.71113480  0.16238722     1.20200
Mn1507     Mn  0.70507874  0.76140586  0.16325773     1.10000
Cl1508     Cl  0.76067496  0.76670554  0.16257933    -0.85500
C1509       C  0.70463348  0.69984569  0.25722887     0.96800
C1510       C  0.70483656  0.69871451  0.06941384     0.96600
C1511       C  0.63707364  0.60839974  0.96994943     0.24000
C1512       C  0.63680559  0.63177140  0.99709627    -0.24100
C1513       C  0.61338560  0.63351499  0.02428656     0.19000
C1514       C  0.59144151  0.61209788  0.02499983     0.24000
C1515       C  0.59130708  0.58930573  0.99714802    -0.24000
C1516       C  0.60995169  0.59333326  0.29839870     0.18900
F1517       F  0.60617504  0.57623653  0.26615934    -0.14000
F1518       F  0.65315794  0.61190305  0.26913807    -0.16300
F1519       F  0.56993445  0.61388173  0.05266562    -0.16300
F1520       F  0.61118253  0.65636641  0.04966631    -0.14000
C1521       C  0.89282186  0.61926975  0.02547191     0.24000
C1522       C  0.89544273  0.64232267  0.99803098    -0.24100
C1523       C  0.91748226  0.64084497  0.30106827     0.19000
C1524       C  0.93788484  0.61794171  0.30100841     0.24000
C1525       C  0.93714354  0.59623656  0.99957771    -0.24000
C1526       C  0.91385288  0.59695561  0.02689301     0.18900
F1527       F  0.91112129  0.57564967  0.05453062    -0.14000
F1528       F  0.86945814  0.61776509  0.05029564    -0.16300
F1529       F  0.95873648  0.61705443  0.27238132    -0.16300
F1530       F  0.92066153  0.66253893  0.27409815    -0.14000
C1531       C  0.60448932  0.93389731  0.02597062     0.24000
C1532       C  0.58377289  0.93572715  0.33270874    -0.24100
C1533       C  0.58681313  0.91732089  0.29982704     0.19000
C1534       C  0.60648779  0.89382219  0.30025396     0.24000
C1535       C  0.62656184  0.89037376  0.99611973    -0.24000
C1536       C  0.62597836  0.91202795  0.02580036     0.18900
F1537       F  0.64670574  0.91279142  0.05419653    -0.14000
F1538       F  0.60000473  0.94872775  0.39724638    -0.16300
F1539       F  0.60349591  0.87073448  0.93827471    -0.16300
F1540       F  0.57011318  0.92168279  0.26745816    -0.14000
C1541       C  0.92657525  0.92346034  0.02840453     0.24000
C1542       C  0.93104519  0.94281154  0.32966093    -0.24100
C1543       C  0.91265162  0.94016308  0.29687515     0.19000
C1544       C  0.88917992  0.92043610  0.29721750     0.24000
C1545       C  0.88477074  0.90068314  0.99586064    -0.24000
C1546       C  0.90490392  0.90185899  0.02723076     0.18900
F1547       F  0.90444096  0.88161018  0.05642581    -0.14000
F1548       F  0.94399480  0.92525617  0.06051628    -0.16300
F1549       F  0.86994947  0.92156226  0.26700654    -0.16300
F1550       F  0.91678404  0.95755662  0.26493159    -0.14000
C1551       C  0.86083592  0.87850635  0.32864422     0.03600
C1552       C  0.85102547  0.86515200  0.62602345    -0.12600
C1553       C  0.82765282  0.84526343  0.62621599     0.01100
C1554       C  0.81547165  0.83596467  0.66187809    -0.11100
C1555       C  0.82549907  0.84788266  0.36413121     0.03600
C1556       C  0.84708945  0.86967010  0.36401633    -0.10500
H1557       H  0.86160254  0.87005239  0.59826284     0.09200
H1558       H  0.79851318  0.81934538  0.66215137     0.06700
H1559       H  0.85309669  0.87941015  0.39178687     0.06500
C1560       C  0.64849263  0.86586768  0.33130764     0.03600
C1561       C  0.66078193  0.85570662  0.62886189    -0.12600
C1562       C  0.68114295  0.83267590  0.62843264     0.01100
C1563       C  0.69082330  0.82064837  0.66388346    -0.11100
C1564       C  0.67963895  0.83092053  0.36599369     0.03600
C1565       C  0.65747292  0.85213882  0.36638797    -0.10500
H1566       H  0.65469847  0.86574634  0.60125992     0.09200
H1567       H  0.70739102  0.80360998  0.66363556     0.06700
H1568       H  0.64757919  0.85788897  0.39430993     0.06500
C1569       C  0.87234189  0.66578681  0.32861931     0.03600
C1570       C  0.86205153  0.67677090  0.62588497    -0.12600
C1571       C  0.84191956  0.70001069  0.62544778     0.01100
C1572       C  0.83065283  0.71143650  0.32768867    -0.11100
C1573       C  0.84092397  0.70061457  0.36352852     0.03600
C1574       C  0.86213885  0.67842732  0.36393788    -0.10500
H1575       H  0.86875086  0.66692287  0.59828529     0.09200
H1576       H  0.81428078  0.72865933  0.32738728     0.06700
H1577       H  0.87066545  0.67117872  0.39192582     0.06500
N1578       N  0.50884864  0.97096644  0.66222953    -0.36200
N1579       N  0.96528573  0.51779826  0.66417686    -0.56700
N1580       N  0.51293529  0.56141117  0.66348280    -0.36200
N1581       N  0.55637855  0.51438635  0.66599460    -0.56700
C1582       C  0.98477322  0.95449231  0.66533310     0.27400
C1583       C  0.53211868  0.95285454  0.66712422     0.27400
C1584       C  0.98913606  0.57915091  0.66764058     0.27400
C1585       C  0.53751223  0.57753591  0.66903163     0.27400
C1586       C  0.94724927  0.99455797  0.65910538     0.36000
C1587       C  0.94889038  0.54228554  0.65962731     0.36000
C1588       C  0.57272345  0.98982359  0.66203239     0.36000
C1589       C  0.57490936  0.53739838  0.66213310     0.36000
C1590       C  0.99281290  0.92568041  0.67285596    -0.21400
C1591       C  0.52202191  0.92462269  0.67353561    -0.21400
C1592       C  0.99887896  0.60716764  0.67612502    -0.21400
C1593       C  0.52944209  0.60624697  0.67728373    -0.21400
C1594       C  0.91847070  0.50481039  0.65526059    -0.22500
C1595       C  0.91990784  0.53467941  0.65341854    -0.22500
C1596       C  0.60183723  0.49728623  0.65561972    -0.22500
C1597       C  0.60329175  0.52720069  0.65660631    -0.22500
C1598       C  0.95531447  0.96449891  0.66145327    -0.17800
C1599       C  0.56229488  0.96054003  0.66448693    -0.17800
C1600       C  0.56697567  0.56747093  0.66519540    -0.17800
C1601       C  0.95914549  0.57151211  0.66313421    -0.17800
H1602       H  0.97886114  0.90674489  0.67626705     0.15100
H1603       H  0.53483131  0.90503498  0.67847000     0.15100
H1604       H  0.98622967  0.62744736  0.34716562     0.15100
H1605       H  0.54342155  0.62624230  0.34312118     0.15100
H1606       H  0.89891299  0.99210545  0.65129665     0.13400
H1607       H  0.90142854  0.54906980  0.64868510     0.13300
H1608       H  0.62059448  0.98300356  0.65405650     0.13400
H1609       H  0.62325204  0.53975997  0.65379472     0.13300
H1610       H  0.50981016  0.99259250  0.65350371     0.26600
H1611       H  0.51219359  0.54033109  0.65243293     0.26600
C1612       C  0.66106354  0.65499462  0.33064500     0.03600
C1613       C  0.67083190  0.66755126  0.62878900    -0.12600
C1614       C  0.69463225  0.68696906  0.62833949     0.01100
C1615       C  0.70642594  0.69706907  0.32995930    -0.11100
C1616       C  0.69609329  0.68580616  0.36564799     0.03600
C1617       C  0.67456934  0.66396115  0.36585036    -0.10500
H1618       H  0.66000907  0.66293753  0.60130859     0.09200
H1619       H  0.72349905  0.71356969  0.32974215     0.06700
H1620       H  0.66850624  0.65421846  0.39370244     0.06500
N1621       N  0.78969461  0.82409165  0.54105429    -0.05700
N1622       N  0.79152962  0.84157903  0.57188754    -0.57800
N1623       N  0.81138420  0.80661893  0.44953862    -0.05300
N1624       N  0.82868665  0.81244279  0.41928693    -0.59900
N1625       N  0.78887267  0.82465410  0.45004896    -0.04900
N1626       N  0.79030386  0.84303904  0.42009221    -0.57800
N1627       N  0.81220998  0.80606549  0.53999049    -0.04600
N1628       N  0.82992649  0.81100103  0.56973910    -0.60300
C1629       C  0.81681550  0.83323435  0.58917111     0.96500
C1630       C  0.81534528  0.83526550  0.40144476     0.96300
N1631       N  0.80079597  0.71541881  0.44998646    -0.05900
N1632       N  0.80605931  0.69796065  0.41980684    -0.58400
N1633       N  0.81943413  0.73769130  0.54030825    -0.04000
N1634       N  0.83776979  0.73570606  0.57012924    -0.59600
N1635       N  0.80125368  0.71533786  0.54050813    -0.05900
N1636       N  0.80694103  0.69758091  0.57010080    -0.58600
N1637       N  0.81868621  0.73800642  0.44921515    -0.03600
N1638       N  0.83642458  0.73647670  0.41843341    -0.59700
Mn1639     Mn  0.81645861  0.77221522  0.49468521     1.18400
C1640       C  0.82835733  0.71133070  0.40060447     0.98600
C1641       C  0.82985887  0.71042346  0.58807729     0.99300
N1642       N  0.72046968  0.81709985  0.45129984    -0.05900
N1643       N  0.71486929  0.83426445  0.42103930    -0.62200
N1644       N  0.70301465  0.79501651  0.54259750    -0.04700
N1645       N  0.68520505  0.79683407  0.57330516    -0.62900
N1646       N  0.72106702  0.81747252  0.54194179    -0.05400
N1647       N  0.71579768  0.83515012  0.57188827    -0.62500
N1648       N  0.70252440  0.79455592  0.45160412    -0.04300
N1649       N  0.68437947  0.79583542  0.42157254    -0.63200
Mn1650     Mn  0.75492269  0.82188894  0.49610811     1.10700
C1651       C  0.69225044  0.82079168  0.40304653     0.99800
C1652       C  0.69332135  0.82207865  0.59099472     0.99900
N1653       N  0.73251768  0.70863694  0.54247234    -0.05400
N1654       N  0.73068750  0.69089463  0.57310466    -0.60800
N1655       N  0.71004873  0.72620249  0.45158014    -0.04700
N1656       N  0.69283142  0.72078243  0.42141433    -0.57500
N1657       N  0.73257752  0.70819811  0.45132799    -0.06000
N1658       N  0.73126935  0.69024443  0.42093918    -0.60400
N1659       N  0.71000447  0.72666341  0.54213054    -0.05000
N1660       N  0.69230321  0.72148321  0.57214629    -0.57500
Mn1661     Mn  0.76687499  0.71087547  0.49616517     1.20200
Mn1662     Mn  0.70538599  0.76050000  0.49697706     1.10000
Cl1663     Cl  0.76092238  0.76638222  0.49598992    -0.85500
C1664       C  0.70539355  0.69908562  0.59102158     0.96800
C1665       C  0.70627778  0.69823913  0.40283527     0.96600
C1666       C  0.63344747  0.61296613  0.29914920     0.24000
C1667       C  0.63698895  0.63258198  0.33094392    -0.24100
C1668       C  0.61715743  0.63040312  0.36295585     0.19000
C1669       C  0.59568067  0.60857444  0.36383961     0.24000
C1670       C  0.59115952  0.59046755  0.33105743    -0.24000
C1671       C  0.60899168  0.59348693  0.63164597     0.18900
F1672       F  0.60439102  0.57713751  0.59891373    -0.14000
F1673       F  0.65136292  0.61275328  0.60114995    -0.16300
F1674       F  0.57861846  0.60568423  0.39646413    -0.16300
F1675       F  0.61766224  0.64987898  0.39306889    -0.14000
C1676       C  0.89352654  0.61954705  0.35809891     0.24000
C1677       C  0.89464357  0.64174828  0.32921614    -0.24100
C1678       C  0.91834978  0.64109592  0.63455511     0.19000
C1679       C  0.93837405  0.61786842  0.63409540     0.24000
C1680       C  0.93714003  0.59634083  0.33044359    -0.24000
C1681       C  0.91506960  0.59773345  0.35942960     0.18900
F1682       F  0.91405387  0.57752860  0.38870056    -0.14000
F1683       F  0.87114386  0.61833505  0.38452614    -0.16300
F1684       F  0.95951555  0.61718690  0.60583952    -0.16300
F1685       F  0.92223258  0.66335099  0.60858352    -0.14000
C1686       C  0.60219393  0.93121779  0.36508006     0.24000
C1687       C  0.58443694  0.93619345  0.66468948    -0.24100
C1688       C  0.58444625  0.91478479  0.63496820     0.19000
C1689       C  0.60449265  0.89155016  0.63566887     0.24000
C1690       C  0.62600360  0.88991295  0.33194174    -0.24000
C1691       C  0.62386741  0.90954645  0.36403142     0.18900
F1692       F  0.64333133  0.90874621  0.39398582    -0.14000
F1693       F  0.60590767  0.95434529  0.72401657    -0.16300
F1694       F  0.60566198  0.87455477  0.26990997    -0.16300
F1695       F  0.56464269  0.91616796  0.60541752    -0.14000
C1696       C  0.92619896  0.92436103  0.36209032     0.24000
C1697       C  0.93125175  0.94217779  0.66111221    -0.24100
C1698       C  0.91311308  0.93903550  0.62814278     0.19000
C1699       C  0.88945331  0.91954185  0.62885422     0.24000
C1700       C  0.88518329  0.90066891  0.32883225    -0.24000
C1701       C  0.90476208  0.90252289  0.36080286     0.18900
F1702       F  0.90404612  0.88269254  0.39049824    -0.14000
F1703       F  0.94291439  0.92692868  0.39478323    -0.16300
F1704       F  0.87039725  0.92041236  0.59842712    -0.16300
F1705       F  0.91760314  0.95580837  0.59568296    -0.14000
C1706       C  0.86072185  0.87820306  0.66123251     0.03600
C1707       C  0.85112436  0.86574292  0.95991680    -0.12600
C1708       C  0.82814389  0.84538871  0.95960405     0.01100
C1709       C  0.81590293  0.83567087  0.99504711    -0.11100
C1710       C  0.82585987  0.84736617  0.69724129     0.03600
C1711       C  0.84719196  0.86939551  0.69678260    -0.10500
H1712       H  0.86161089  0.87136506  0.93232068     0.09200
H1713       H  0.79910226  0.81889283  0.99493159     0.06700
H1714       H  0.85314234  0.87932086  0.72444438     0.06500
C1715       C  0.64864311  0.86593143  0.66456812     0.03600
C1716       C  0.66154040  0.85601577  0.96098324    -0.12600
C1717       C  0.68180799  0.83291258  0.96111921     0.01100
C1718       C  0.69136925  0.82127594  0.99683348    -0.11100
C1719       C  0.67997213  0.83132140  0.69969027     0.03600
C1720       C  0.65840324  0.85322936  0.69996564    -0.10500
H1721       H  0.65577661  0.86590124  0.93316488     0.09200
H1722       H  0.70795007  0.80425199  0.99703790     0.06700
H1723       H  0.64939653  0.86030240  0.72791052     0.06500
C1724       C  0.87312334  0.66599378  0.66168993     0.03600
C1725       C  0.86284335  0.67702318  0.96050346    -0.12600
C1726       C  0.84237741  0.69995656  0.95930548     0.01100
C1727       C  0.83176419  0.71191391  0.66092189    -0.11100
C1728       C  0.84173938  0.70073884  0.69672242     0.03600
C1729       C  0.86274541  0.67835843  0.69707159    -0.10500
H1730       H  0.87023001  0.66721919  0.93318288     0.09200
H1731       H  0.81545090  0.72919340  0.66068150     0.06700
H1732       H  0.87098482  0.67073776  0.72504421     0.06500
N1733       N  0.50865794  0.97095071  0.99209307    -0.36200
N1734       N  0.96499967  0.51806376  0.99967986    -0.56700
N1735       N  0.51308776  0.56129698  0.99972829    -0.36200
N1736       N  0.55639725  0.51393513  0.99691190    -0.56700
C1737       C  0.98454778  0.95452090  0.99818989     0.27400
C1738       C  0.53196661  0.95267852  0.99575445     0.27400
C1739       C  0.98911697  0.57911947  0.00474128     0.27400
C1740       C  0.53786321  0.57695696  0.99297957     0.27400
C1741       C  0.94686573  0.99484855  0.99716819     0.36000
C1742       C  0.94885425  0.54269685  0.99486192     0.36000
C1743       C  0.57274048  0.98972422  0.99359534     0.36000
C1744       C  0.57481810  0.53692630  0.00155186     0.36000
C1745       C  0.99254781  0.92535403  0.00260025    -0.21400
C1746       C  0.52188144  0.92428364  0.00086173    -0.21400
C1747       C  0.99902983  0.60679529  0.01472198    -0.21400
C1748       C  0.53033591  0.60546482  0.98335780    -0.21400
C1749       C  0.91850762  0.50546084  0.98727704    -0.22500
C1750       C  0.92010776  0.53535534  0.98660445    -0.22500
C1751       C  0.60177083  0.49691875  0.00717291    -0.22500
C1752       C  0.60293066  0.52683037  0.00853610    -0.22500
C1753       C  0.95501252  0.96475806  0.99687549    -0.17800
C1754       C  0.56218634  0.96043296  0.99427549    -0.17800
C1755       C  0.56717691  0.56692489  0.99735094    -0.17800
C1756       C  0.95910947  0.57178684  0.99983107    -0.17800
H1757       H  0.97851729  0.90636479  0.00464200     0.15100
H1758       H  0.53466717  0.90457539  0.00496742     0.15100
H1759       H  0.98580912  0.62652150  0.68171894     0.15100
H1760       H  0.54342027  0.62500958  0.68176350     0.15100
H1761       H  0.89822092  0.99240621  0.99458490     0.13400
H1762       H  0.90189245  0.54994266  0.98118512     0.13300
H1763       H  0.62093855  0.98309778  0.98966961     0.13400
H1764       H  0.62252339  0.53958286  0.01346207     0.13300
H1765       H  0.50952698  0.99288868  0.98463378     0.26600
H1766       H  0.51213900  0.54037496  0.01138472     0.26600
C1767       C  0.66110884  0.65450967  0.66422724     0.03600
C1768       C  0.67209770  0.66514247  0.96122271    -0.12600
C1769       C  0.69509779  0.68551232  0.96096924     0.01100
C1770       C  0.70716926  0.69595190  0.66370391    -0.11100
C1771       C  0.69659370  0.68486142  0.69934502     0.03600
C1772       C  0.67481037  0.66325357  0.69945499    -0.10500
H1773       H  0.66284512  0.65820395  0.93350872     0.09200
H1774       H  0.72446456  0.71222089  0.66355658     0.06700
H1775       H  0.66881647  0.65348832  0.72729528     0.06500
N1776       N  0.79045873  0.82385475  0.87436848    -0.05700
N1777       N  0.79230250  0.84157328  0.90496388    -0.57800
N1778       N  0.81219694  0.80630214  0.78295185    -0.05300
N1779       N  0.82942446  0.81210544  0.75260725    -0.59900
N1780       N  0.78962538  0.82425578  0.78342347    -0.04900
N1781       N  0.79093400  0.84256810  0.75339654    -0.57800
N1782       N  0.81300022  0.80586044  0.87347622    -0.04600
N1783       N  0.83074309  0.81105525  0.90313797    -0.60300
C1784       C  0.81764351  0.83345384  0.92228530     0.96500
C1785       C  0.81596313  0.83484823  0.73471747     0.96300
N1786       N  0.80167143  0.71514285  0.78332518    -0.05900
N1787       N  0.80690056  0.69781829  0.75299849    -0.58400
N1788       N  0.82026600  0.73735661  0.87376878    -0.04000
N1789       N  0.83855038  0.73541022  0.90365660    -0.59600
N1790       N  0.80217169  0.71492651  0.87385964    -0.05900
N1791       N  0.80788075  0.69717189  0.90345264    -0.58600
N1792       N  0.81951537  0.73776934  0.78265361    -0.03600
N1793       N  0.83716497  0.73641624  0.75177491    -0.59700
Mn1794     Mn  0.81728163  0.77192431  0.82817434     1.18400
C1795       C  0.82910982  0.71133176  0.73379960     0.98600
C1796       C  0.83074414  0.71005632  0.92151394     0.99300
N1797       N  0.72121198  0.81678138  0.78461940    -0.05900
N1798       N  0.71535897  0.83426670  0.75475487    -0.62200
N1799       N  0.70388015  0.79457993  0.87592019    -0.04700
N1800       N  0.68600772  0.79658715  0.90654795    -0.62900
N1801       N  0.72191936  0.81704775  0.87512108    -0.05400
N1802       N  0.71660469  0.83490283  0.90483729    -0.62500
N1803       N  0.70329218  0.79421016  0.78479226    -0.04300
N1804       N  0.68494860  0.79580025  0.75496608    -0.63200
Mn1805     Mn  0.75570910  0.82147333  0.82939852     1.10700
C1806       C  0.69260290  0.82100787  0.73678772     0.99800
C1807       C  0.69412325  0.82193746  0.92400107     0.99900
N1808       N  0.73338508  0.70784891  0.87565407    -0.05400
N1809       N  0.73132227  0.68966409  0.90581763    -0.60800
N1810       N  0.71086245  0.72560700  0.78492853    -0.04700
N1811       N  0.69345493  0.71994322  0.75503613    -0.57500
N1812       N  0.73342700  0.70763981  0.78462659    -0.06000
N1813       N  0.73195634  0.68949423  0.75444927    -0.60400
N1814       N  0.71090540  0.72593167  0.87545305    -0.05000
N1815       N  0.69302938  0.72035721  0.90515774    -0.57500
Mn1816     Mn  0.76778209  0.71038904  0.82945309     1.20200
Mn1817     Mn  0.70622867  0.75997952  0.83029164     1.10000
Cl1818     Cl  0.76174826  0.76593919  0.82937355    -0.85500
C1819       C  0.70591403  0.69762724  0.92362604     0.96800
C1820       C  0.70680767  0.69728924  0.73656223     0.96600
C1821       C  0.63245690  0.61320941  0.63208839     0.24000
C1822       C  0.63680762  0.63217699  0.66446852    -0.24100
C1823       C  0.61767006  0.62922192  0.69717677     0.19000
C1824       C  0.59638360  0.60718806  0.69822627     0.24000
C1825       C  0.59107838  0.58977091  0.66501082    -0.24000
C1826       C  0.61413395  0.58804683  0.96915557     0.18900
F1827       F  0.61444571  0.56677229  0.94126098    -0.14000
F1828       F  0.65995668  0.60468300  0.94473726    -0.16300
F1829       F  0.58024774  0.60342894  0.73152768    -0.16300
F1830       F  0.61859264  0.64812893  0.72790333    -0.14000
C1831       C  0.89338191  0.61908856  0.69030064     0.24000
C1832       C  0.89516276  0.64175821  0.66216528    -0.24100
C1833       C  0.91941208  0.64208811  0.97170449     0.19000
C1834       C  0.93948197  0.61892280  0.97175461     0.24000
C1835       C  0.93701082  0.59578453  0.66286691    -0.24000
C1836       C  0.91464118  0.59700931  0.69145930     0.18900
F1837       F  0.91307746  0.57641777  0.72020265    -0.14000
F1838       F  0.87065730  0.61773255  0.71618037    -0.16300
F1839       F  0.96150582  0.61878133  0.94472917    -0.16300
F1840       F  0.92389550  0.66464419  0.94638084    -0.14000
C1841       C  0.60549077  0.93426361  0.69458306     0.24000
C1842       C  0.58431653  0.93611839  0.99504638    -0.24100
C1843       C  0.58519299  0.91503471  0.96493972     0.19000
C1844       C  0.60536644  0.89194139  0.96610604     0.24000
C1845       C  0.62632967  0.89006682  0.66483379    -0.24000
C1846       C  0.62668687  0.91206204  0.69404008     0.18900
F1847       F  0.64805874  0.91276811  0.72156731    -0.14000
F1848       F  0.60385612  0.95348483  0.05601024    -0.16300
F1849       F  0.60192335  0.87013366  0.60823163    -0.16300
F1850       F  0.56602292  0.91649736  0.93465224    -0.14000
C1851       C  0.92601328  0.92436843  0.69405785     0.24000
C1852       C  0.93086575  0.94250475  0.99644458    -0.24100
C1853       C  0.91166779  0.94072102  0.96437831     0.19000
C1854       C  0.88813345  0.92107855  0.96488698     0.24000
C1855       C  0.88511783  0.90032429  0.66103181    -0.24000
C1856       C  0.90452670  0.90260237  0.69314193     0.18900
F1857       F  0.90364295  0.88325524  0.72339054    -0.14000
F1858       F  0.94238274  0.92748574  0.72697789    -0.16300
F1859       F  0.86821882  0.92284053  0.93553038    -0.16300
F1860       F  0.91509646  0.95886730  0.93305384    -0.14000
loop_ 
_geom_bond_atom_site_label_1 
_geom_bond_atom_site_label_2 
_geom_bond_distance 
_geom_bond_site_symmetry_2 
_ccdc_geom_bond_type 
C1            C6   1.409   1_556  A
C1          C312   1.410       .  A
C1          C150   1.494       .  S
C2            C3   1.402       .  A
C2          C156   1.412       .  A
C2            H7   1.082       .  S
C3            C4   1.398       .  A
C3           C79   1.465       .  S
C4          C160   1.398       .  A
C4            H8   1.084       .  S
C5            C6   1.400       .  A
C5          C314   1.399   1_554  A
C5           C80   1.465       .  S
C6            H9   1.083       .  S
C10          C15   1.409   1_556  A
C10         C321   1.409       .  A
C10         C140   1.493       .  S
C11          C12   1.402       .  A
C11         C165   1.410       .  A
C11          H16   1.083       .  S
C12          C13   1.398       .  A
C12         C102   1.466       .  S
C13         C169   1.399       .  A
C13          H17   1.084       .  S
C14          C15   1.402       .  A
C14         C323   1.400   1_554  A
C14         C101   1.466       .  S
C15          H18   1.083       .  S
C19          C24   1.410   1_556  A
C19         C330   1.413       .  A
C19         C127   1.500       .  S
C20          C21   1.402       .  A
C20         C174   1.413       .  A
C20          H25   1.082       .  S
C21         C177   1.398       .  A
C21          C91   1.467       .  S
C22          C23   1.398   1_556  A
C22         C331   1.398       .  A
C22          H26   1.084       .  S
C23          C24   1.400       .  A
C23          C90   1.465       .  S
C24          H27   1.082       .  S
N28          C33   1.356       .  A
N28         C962   1.357   1_455  A
N28          H60   1.034       .  S
N29          C37   1.354       .  A
N29         C501   1.354   1_545  A
N30          C35   1.357       .  A
N30         C964   1.356   1_455  A
N30          H61   1.031       .  S
N31          C39   1.355       .  A
N31         C503   1.355   1_545  A
C32          C40   1.390       .  A
C32          C48   1.427       .  A
C32         N958   1.356       .  A
C33          C49   1.422       .  A
C33          C41   1.386       .  A
C34          C42   1.389       .  A
C34          C51   1.427       .  A
C34         N960   1.356       .  A
C35          C50   1.428       .  A
C35          C43   1.389       .  A
C36          C48   1.423       .  A
C36         C509   1.388       .  A
C36         N494   1.355       .  A
C37          C51   1.424       .  A
C37          C45   1.389       .  A
C38          C49   1.420       .  A
C38         C511   1.385       .  A
C38         N496   1.355       .  A
C39          C47   1.388       .  A
C39          C50   1.425       .  A
C40         C971   1.369       .  A
C40          H52   1.080       .  S
C41         C970   1.370   1_455  A
C41          H53   1.082       .  S
C42         C973   1.371       .  A
C42         H209   1.081       .  S
C43         C972   1.371   1_455  A
C43         H210   1.080       .  S
C44          C45   1.367       .  A
C44         C501   1.386   1_545  A
C44         H521   1.082   1_545  S
C45          H57   1.081       .  S
C46          C47   1.367   1_565  A
C46         C503   1.386       .  A
C46         H523   1.082       .  S
C47          H59   1.081       .  S
C48         C147   1.498       .  S
C49         C137   1.499       .  S
C50         C275   1.502       .  S
C51         C285   1.497       .  S
H54         C352   1.081       .  S
H55         C353   1.081   1_556  S
H56         C509   1.081       .  S
H58         C511   1.082       .  S
C62          C67   1.412   1_556  A
C62         C373   1.412       .  A
C62         C117   1.502       .  S
C63          C64   1.402       .  A
C63         C217   1.413       .  A
C63          H68   1.082       .  S
C64         C220   1.398       .  A
C64         C114   1.467       .  S
C65          C66   1.398   1_556  A
C65         C374   1.398       .  A
C65          H69   1.084       .  S
C66          C67   1.402       .  A
C66         C115   1.466       .  S
C67          H70   1.082       .  S
N71          N72   1.322       .  A
N71          N77   1.316       .  A
N71        Mn100   2.215       .  S
N72          C79   1.353       .  A
N73          N75   1.316       .  A
N73          N74   1.321       .  A
N73         Mn89   2.208       .  S
N74          C80   1.352       .  A
N75          N76   1.321       .  A
N75        Mn100   2.199       .  S
N76          C80   1.350       .  A
N77          N78   1.320       .  A
N77         Mn89   2.191       .  S
N78          C79   1.349       .  A
N81          N87   1.316       .  A
N81          N82   1.320       .  A
N81        Mn111   2.209       .  S
N82          C90   1.352       .  A
N83          N84   1.322       .  A
N83          N85   1.316       .  A
N83         Mn89   2.213       .  S
N84          C91   1.353       .  A
N85          N86   1.320       .  A
N85        Mn111   2.194       .  S
N86          C91   1.350       .  A
N87          N88   1.321       .  A
N87         Mn89   2.196       .  S
N88          C90   1.350       .  A
Mn89       Cl113   2.550       .  S
N92          N93   1.321       .  A
N92          N98   1.316       .  A
N92        Mn100   2.211       .  S
N93         C101   1.353       .  A
N94          N96   1.316       .  A
N94          N95   1.322       .  A
N94        Mn112   2.213       .  S
N95         C102   1.353       .  A
N96          N97   1.320       .  A
N96        Mn100   2.194       .  S
N97         C102   1.350       .  A
N98          N99   1.321       .  A
N98        Mn112   2.199       .  S
N99         C101   1.350       .  A
Mn100      Cl113   2.549       .  S
N103        N104   1.322       .  A
N103        N109   1.316       .  A
N103       Mn111   2.214       .  S
N104        C114   1.353       .  A
N105        N106   1.321       .  A
N105        N107   1.316       .  A
N105       Mn112   2.210       .  S
N106        C115   1.353       .  A
N107        N108   1.321       .  A
N107       Mn111   2.197       .  S
N108        C115   1.350       .  A
N109        N110   1.320       .  A
N109       Mn112   2.195       .  S
N110        C114   1.350       .  A
Mn111      Cl113   2.549       .  S
Mn112      Cl113   2.549       .  S
C116        C117   1.415       .  A
C116        C431   1.399       .  A
C116        F433   1.357       .  S
C117        C118   1.415   1_556  A
C118        C119   1.399       .  A
C118        F125   1.357       .  S
C119        C120   1.405       .  A
C119        F124   1.358       .  S
C120        C431   1.405   1_554  A
C120        C360   1.499       .  S
C121        C271   1.400       .  A
C121        C275   1.406       .  A
C121        F122   1.358       .  S
F123        C271   1.357       .  S
C126        C127   1.414   1_554  A
C126        C131   1.400       .  A
C126        F133   1.357       .  S
C127        C438   1.413       .  A
C128        C129   1.399       .  A
C128        C282   1.415       .  A
C128        F135   1.357       .  S
C129        C285   1.405       .  A
C129        F134   1.358       .  S
C130        C131   1.406   1_556  A
C130        C439   1.406       .  A
C130        C361   1.500       .  S
C131        F132   1.358       .  S
C136        C141   1.399       .  A
C136        C447   1.408   1_554  A
C136        F453   1.358       .  S
C137        C138   1.406       .  A
C137        C291   1.407       .  A
C138        C139   1.399       .  A
C138        F145   1.358       .  S
C139        C295   1.412       .  A
C139        F299   1.358       .  S
C140        C141   1.410   1_556  A
C140        C449   1.411       .  A
C141        F142   1.358       .  S
F143        C291   1.358       .  S
F144        C449   1.358       .  S
C146        C151   1.398       .  A
C146        C457   1.406   1_554  A
C146        F153   1.358       .  S
C147        C148   1.406       .  A
C147        C301   1.405       .  A
C148        C149   1.399       .  A
C148        F155   1.358       .  S
C149        C305   1.415       .  A
C149        F154   1.357       .  S
C150        C151   1.411   1_556  A
C150        C459   1.410       .  A
C151        F152   1.358       .  S
C156        C161   1.412       .  A
C156        C305   1.501       .  S
C157        C311   1.412       .  A
C157        C158   1.401       .  A
C157        H162   1.081       .  S
C158        C159   1.397       .  A
C158        C234   1.464       .  S
C159        C315   1.397       .  A
C159        H163   1.084       .  S
C160        C161   1.400       .  A
C160        C235   1.465       .  S
C161        H164   1.081       .  S
C165        C170   1.410       .  A
C165        C295   1.496       .  S
C166        C320   1.410       .  A
C166        C167   1.402       .  A
C166        H171   1.083       .  S
C167        C168   1.399       .  A
C167        C257   1.465       .  S
C168        C324   1.399       .  A
C168        H172   1.084       .  S
C169        C170   1.402       .  A
C169        C256   1.465       .  S
C170        H173   1.083       .  S
C174        C179   1.411       .  A
C174        C282   1.503       .  S
C175        C329   1.411       .  A
C175        C176   1.403       .  A
C175        H180   1.083       .  S
C176        C332   1.399       .  A
C176        C246   1.468       .  S
C177        C178   1.398       .  A
C177        H181   1.084       .  S
C178        C179   1.400       .  A
C178        C245   1.465       .  S
C179        H182   1.081       .  S
N183        C188   1.356       .  A
N183       C1117   1.356   1_455  A
N183        H215   1.033       .  S
N184        C656   1.355   1_545  A
N184        C192   1.355       .  A
N185        C190   1.357       .  A
N185       C1119   1.356   1_455  A
N185        H216   1.033       .  S
N186        C658   1.355   1_545  A
N186        C194   1.355       .  A
C187        C195   1.390       .  A
C187        C203   1.427       .  A
C187       N1113   1.357       .  A
C188        C204   1.422       .  A
C188        C196   1.386       .  A
C189        C197   1.386       .  A
C189        C206   1.424       .  A
C189       N1115   1.357       .  A
C190        C205   1.427       .  A
C190        C198   1.390       .  A
C191        C203   1.423       .  A
C191        C664   1.388       .  A
C191        N649   1.355       .  A
C192        C206   1.421       .  A
C192        C200   1.386       .  A
C193        C666   1.386       .  A
C193        C204   1.421       .  A
C193        N651   1.355       .  A
C194        C202   1.388       .  A
C194        C205   1.424       .  A
C195       C1126   1.371       .  A
C195        H207   1.080       .  S
C196       C1125   1.370   1_455  A
C196        H208   1.082       .  S
C197       C1128   1.370       .  A
C197        H364   1.082       .  S
C198       C1127   1.371   1_455  A
C198        H365   1.080       .  S
C199        C656   1.388   1_545  A
C199        C200   1.367       .  A
C199        H676   1.081   1_545  S
C200        H212   1.082       .  S
C201        C658   1.386       .  A
C201        C202   1.368   1_565  A
C201        H678   1.082       .  S
C202        H214   1.081       .  S
C203        C302   1.498       .  S
C204        C292   1.499       .  S
C205        C430   1.500       .  S
C206        C440   1.502       .  S
H211        C664   1.080       .  S
H213        C666   1.082       .  S
C217        C222   1.412       .  A
C217        C272   1.504       .  S
C218        C372   1.414       .  A
C218        C219   1.403       .  A
C218        H223   1.081       .  S
C219        C375   1.398       .  A
C219        C269   1.468       .  S
C220        C221   1.398       .  A
C220        H224   1.084       .  S
C221        C222   1.402       .  A
C221        C270   1.467       .  S
C222        H225   1.081       .  S
N226        N227   1.321       .  A
N226        N232   1.316       .  A
N226       Mn255   2.213       .  S
N227        C234   1.353       .  A
N228        N230   1.316       .  A
N228        N229   1.320       .  A
N228       Mn244   2.210       .  S
N229        C235   1.353       .  A
N230        N231   1.321       .  A
N230       Mn255   2.196       .  S
N231        C235   1.350       .  A
N232        N233   1.320       .  A
N232       Mn244   2.190       .  S
N233        C234   1.349       .  A
N236        N242   1.316       .  A
N236        N237   1.320       .  A
N236       Mn266   2.211       .  S
N237        C245   1.352       .  A
N238        N239   1.322       .  A
N238        N240   1.316       .  A
N238       Mn244   2.215       .  S
N239        C246   1.354       .  A
N240        N241   1.320       .  A
N240       Mn266   2.196       .  S
N241        C246   1.350       .  A
N242        N243   1.321       .  A
N242       Mn244   2.196       .  S
N243        C245   1.350       .  A
Mn244      Cl268   2.550       .  S
N247        N248   1.321       .  A
N247        N253   1.316       .  A
N247       Mn255   2.208       .  S
N248        C256   1.352       .  A
N249        N251   1.316       .  A
N249        N250   1.322       .  A
N249       Mn267   2.212       .  S
N250        C257   1.353       .  A
N251        N252   1.320       .  A
N251       Mn255   2.193       .  S
N252        C257   1.350       .  A
N253        N254   1.321       .  A
N253       Mn267   2.199       .  S
N254        C256   1.351       .  A
Mn255      Cl268   2.548       .  S
N258        N259   1.322       .  A
N258        N264   1.316       .  A
N258       Mn266   2.219       .  S
N259        C269   1.354       .  A
N260        N261   1.321       .  A
N260        N262   1.316       .  A
N260       Mn267   2.209       .  S
N261        C270   1.353       .  A
N262        N263   1.321       .  A
N262       Mn266   2.199       .  S
N263        C270   1.351       .  A
N264        N265   1.320       .  A
N264       Mn267   2.192       .  S
N265        C269   1.349       .  A
Mn266      Cl268   2.548       .  S
Mn267      Cl268   2.549       .  S
C271        C272   1.415       .  A
C272        C273   1.415       .  A
C273        C274   1.400       .  A
C273        F280   1.357       .  S
C274        C275   1.406       .  A
C274        F279   1.358       .  S
C276        C426   1.400       .  A
C276        C430   1.405       .  A
C276        F277   1.358       .  S
F278        C426   1.357       .  S
C281        C282   1.415       .  A
C281        C286   1.398       .  A
C281        F288   1.357       .  S
C283        C437   1.411       .  A
C283        C284   1.400       .  A
C283        F290   1.358       .  S
C284        C440   1.407       .  A
C284        F289   1.358       .  S
C285        C286   1.404       .  A
C286        F287   1.358       .  S
C291        C296   1.400       .  A
C292        C446   1.406       .  A
C292        C293   1.407       .  A
C293        C294   1.400       .  A
C293        F300   1.358       .  S
C294        C450   1.411       .  A
C294        F454   1.358       .  S
C295        C296   1.412       .  A
C296        F297   1.357       .  S
F298        C446   1.358       .  S
C301        C306   1.397       .  A
C301        F308   1.358       .  S
C302        C456   1.404       .  A
C302        C303   1.406       .  A
C303        C304   1.400       .  A
C303        F310   1.358       .  S
C304        C460   1.416       .  A
C304        F309   1.357       .  S
C305        C306   1.414       .  A
C306        F307   1.357       .  S
C311        C316   1.413       .  A
C311        C460   1.503       .  S
C312        C313   1.403       .  A
C312        H317   1.083       .  S
C313        C314   1.400       .  A
C313        C389   1.467       .  S
C314        H318   1.084       .  S
C315        C316   1.400       .  A
C315        C390   1.465       .  S
C316        H319   1.081       .  S
C320        C325   1.409       .  A
C320        C450   1.495       .  S
C321        C322   1.401       .  A
C321        H326   1.083       .  S
C322        C323   1.399       .  A
C322        C412   1.466       .  S
C323        H327   1.084       .  S
C324        C325   1.401       .  A
C324        C411   1.465       .  S
C325        H328   1.083       .  S
C329        C334   1.410       .  A
C329        C437   1.497       .  S
C330        C331   1.404       .  A
C330        H335   1.082       .  S
C331        C401   1.468       .  S
C332        C333   1.399       .  A
C332        H336   1.084       .  S
C333        C334   1.402       .  A
C333        C400   1.467       .  S
C334        H337   1.083       .  S
N338        C343   1.356   1_556  A
N338       C1272   1.357   1_456  A
N338        H370   1.036       .  S
N339        C811   1.354   1_545  A
N339        C347   1.354       .  A
N340        C345   1.357       .  A
N340       C1274   1.356   1_455  A
N340        H371   1.030       .  S
N341        C813   1.353   1_545  A
N341        C349   1.354       .  A
C342        C350   1.386       .  A
C342        C358   1.422       .  A
C342       N1268   1.357       .  A
C343        C359   1.422   1_554  A
C343        C351   1.386       .  A
C344        C352   1.388   1_554  A
C344        C361   1.427   1_554  A
C344       N1270   1.357       .  A
C345        C360   1.426       .  A
C345        C353   1.388       .  A
C346        C358   1.419   1_554  A
C346        C819   1.385       .  A
C346        N804   1.354   1_554  A
C347        C361   1.423       .  A
C347        C355   1.387       .  A
C348        C821   1.385       .  A
C348        C359   1.419       .  A
C348        N806   1.354       .  A
C349        C357   1.387       .  A
C349        C360   1.423   1_556  A
C350       C1281   1.370       .  A
C350        H362   1.082       .  S
C351       C1280   1.371   1_455  A
C351        H363   1.082       .  S
C352       C1283   1.369       .  A
C353       C1282   1.369   1_455  A
C354        C811   1.387   1_545  A
C354        C355   1.366       .  A
C354        H831   1.081   1_545  S
C355        H367   1.081       .  S
C356        C813   1.387       .  A
C356        C357   1.367   1_565  A
C356        H833   1.081       .  S
C357        H369   1.081       .  S
C358        C457   1.501       .  S
C359        C447   1.500       .  S
H366        C819   1.082       .  S
H368        C821   1.082       .  S
C372        C377   1.413       .  A
C372        C427   1.507       .  S
C373        C374   1.402       .  A
C373        H378   1.082       .  S
C374        C424   1.466       .  S
C375        C376   1.398       .  A
C375        H379   1.084       .  S
C376        C377   1.402       .  A
C376        C425   1.467       .  S
C377        H380   1.081       .  S
N381        N382   1.322       .  A
N381        N387   1.317       .  A
N381       Mn410   2.213       .  S
N382        C389   1.353       .  A
N383        N385   1.316       .  A
N383        N384   1.320       .  A
N383       Mn399   2.211       .  S
N384        C390   1.353       .  A
N385        N386   1.321       .  A
N385       Mn410   2.195       .  S
N386        C390   1.350       .  A
N387        N388   1.320       .  A
N387       Mn399   2.198       .  S
N388        C389   1.350       .  A
N391        N397   1.316       .  A
N391        N392   1.321       .  A
N391       Mn421   2.206       .  S
N392        C400   1.352       .  A
N393        N394   1.322       .  A
N393        N395   1.316       .  A
N393       Mn399   2.217       .  S
N394        C401   1.354       .  A
N395        N396   1.320       .  A
N395       Mn421   2.194       .  S
N396        C401   1.350       .  A
N397        N398   1.322       .  A
N397       Mn399   2.205       .  S
N398        C400   1.352       .  A
Mn399      Cl423   2.548       .  S
N402        N403   1.321       .  A
N402        N408   1.316       .  A
N402       Mn410   2.208       .  S
N403        C411   1.352       .  A
N404        N406   1.316       .  A
N404        N405   1.322       .  A
N404       Mn422   2.215       .  S
N405        C412   1.354       .  A
N406        N407   1.320       .  A
N406       Mn410   2.194       .  S
N407        C412   1.349       .  A
N408        N409   1.321       .  A
N408       Mn422   2.198       .  S
N409        C411   1.350       .  A
Mn410      Cl423   2.550       .  S
N413        N414   1.322       .  A
N413        N419   1.316       .  A
N413       Mn421   2.215       .  S
N414        C424   1.354       .  A
N415        N416   1.321       .  A
N415        N417   1.316       .  A
N415       Mn422   2.210       .  S
N416        C425   1.353       .  A
N417        N418   1.321       .  A
N417       Mn421   2.198       .  S
N418        C425   1.350       .  A
N419        N420   1.320       .  A
N419       Mn422   2.191       .  S
N420        C424   1.349       .  A
Mn421      Cl423   2.550       .  S
Mn422      Cl423   2.550       .  S
C426        C427   1.416       .  A
C427        C428   1.417       .  A
C428        C429   1.400       .  A
C428        F435   1.357       .  S
C429        C430   1.405       .  A
C429        F434   1.358       .  S
C431        F432   1.358       .  S
C436        C437   1.412       .  A
C436        C441   1.401       .  A
C436        F443   1.358       .  S
C438        C439   1.399       .  A
C438        F445   1.357       .  S
C439        F444   1.358       .  S
C440        C441   1.408       .  A
C441        F442   1.358       .  S
C446        C451   1.399       .  A
C447        C448   1.407       .  A
C448        C449   1.399       .  A
C448        F455   1.358       .  S
C450        C451   1.412       .  A
C451        F452   1.358       .  S
C456        C461   1.397       .  A
C456        F463   1.358       .  S
C457        C458   1.409       .  A
C458        C459   1.401       .  A
C458        F465   1.358       .  S
C459        F464   1.358       .  S
C460        C461   1.415       .  A
C461        F462   1.357       .  S
C466        C777   1.412       .  A
C466        C471   1.410   1_556  A
C466        C615   1.499       .  S
C467        C621   1.410       .  A
C467        C468   1.402       .  A
C467        H472   1.083       .  S
C468        C469   1.399       .  A
C468        C544   1.465       .  S
C469        C625   1.398       .  A
C469        H473   1.084       .  S
C470        C779   1.398   1_554  A
C470        C471   1.400       .  A
C470        C545   1.464       .  S
C471        H474   1.082       .  S
C475        C786   1.411       .  A
C475        C480   1.410   1_556  A
C475        C605   1.497       .  S
C476        C630   1.411       .  A
C476        C477   1.402       .  A
C476        H481   1.083       .  S
C477        C478   1.398       .  A
C477        C567   1.465       .  S
C478        C634   1.398       .  A
C478        H482   1.085       .  S
C479        C788   1.399   1_554  A
C479        C480   1.400       .  A
C479        C566   1.464       .  S
C480        H483   1.082       .  S
C484        C795   1.414       .  A
C484        C489   1.412   1_556  A
C484        C592   1.506       .  S
C485        C639   1.411       .  A
C485        C486   1.403       .  A
C485        H490   1.083       .  S
C486        C642   1.399       .  A
C486        C556   1.467       .  S
C487        C796   1.398       .  A
C487        C488   1.397   1_556  A
C487        H491   1.084       .  S
C488        C489   1.400       .  A
C488        C555   1.465       .  S
C489        H492   1.081       .  S
N493        C498   1.356       .  A
N493       C1427   1.357   1_455  A
N493        H525   1.032       .  S
N494        C502   1.355       .  A
N495        C500   1.357       .  A
N495       C1429   1.356   1_455  A
N495        H526   1.032       .  S
N496        C504   1.355       .  A
C497        C505   1.386       .  A
C497        C513   1.425       .  A
C497       N1423   1.357       .  A
C498        C514   1.424       .  A
C498        C506   1.387       .  A
C499        C507   1.386       .  A
C499        C516   1.423       .  A
C499       N1425   1.356       .  A
C500        C515   1.427       .  A
C500        C508   1.389       .  A
C501        C513   1.420       .  A
C502        C516   1.421       .  A
C502        C510   1.386       .  A
C503        C514   1.422       .  A
C504        C512   1.388       .  A
C504        C515   1.424       .  A
C505       C1436   1.369       .  A
C505        H517   1.082       .  S
C506       C1435   1.370   1_455  A
C506        H518   1.082       .  S
C507       C1438   1.371       .  A
C507        H674   1.082       .  S
C508       C1437   1.371   1_455  A
C508        H675   1.080       .  S
C509        C510   1.367       .  A
C510        H522   1.082       .  S
C511        C512   1.367       .  A
C512        H524   1.081       .  S
C513        C612   1.500       .  S
C514        C602   1.500       .  S
C515        C740   1.499       .  S
C516        C750   1.498       .  S
H519        C817   1.080       .  S
H520        C818   1.080       .  S
C527        C838   1.413       .  A
C527        C532   1.414   1_556  A
C527        C582   1.507       .  S
C528        C682   1.413       .  A
C528        C529   1.403       .  A
C528        H533   1.082       .  S
C529        C685   1.398       .  A
C529        C579   1.467       .  S
C530        C839   1.397       .  A
C530        C531   1.397   1_556  A
C530        H534   1.084       .  S
C531        C532   1.402       .  A
C531        C580   1.467       .  S
C532        H535   1.081       .  S
N536        N537   1.322       .  A
N536        N542   1.316       .  A
N536       Mn565   2.212       .  S
N537        C544   1.353       .  A
N538        N540   1.316       .  A
N538        N539   1.320       .  A
N538       Mn554   2.206       .  S
N539        C545   1.352       .  A
N540        N541   1.321       .  A
N540       Mn565   2.197       .  S
N541        C545   1.350       .  A
N542        N543   1.320       .  A
N542       Mn554   2.194       .  S
N543        C544   1.350       .  A
N546        N552   1.316       .  A
N546        N547   1.320       .  A
N546       Mn576   2.210       .  S
N547        C555   1.352       .  A
N548        N549   1.322       .  A
N548        N550   1.316       .  A
N548       Mn554   2.214       .  S
N549        C556   1.354       .  A
N550        N551   1.320       .  A
N550       Mn576   2.196       .  S
N551        C556   1.350       .  A
N552        N553   1.321       .  A
N552       Mn554   2.198       .  S
N553        C555   1.350       .  A
Mn554      Cl578   2.550       .  S
N557        N558   1.320       .  A
N557        N563   1.316       .  A
N557       Mn565   2.206       .  S
N558        C566   1.352       .  A
N559        N561   1.316       .  A
N559        N560   1.322       .  A
N559       Mn577   2.215       .  S
N560        C567   1.353       .  A
N561        N562   1.319       .  A
N561       Mn565   2.191       .  S
N562        C567   1.349       .  A
N563        N564   1.321       .  A
N563       Mn577   2.197       .  S
N564        C566   1.350       .  A
Mn565      Cl578   2.549       .  S
N568        N569   1.322       .  A
N568        N574   1.316       .  A
N568       Mn576   2.218       .  S
N569        C579   1.354       .  A
N570        N571   1.321       .  A
N570        N572   1.316       .  A
N570       Mn577   2.209       .  S
N571        C580   1.353       .  A
N572        N573   1.322       .  A
N572       Mn576   2.201       .  S
N573        C580   1.351       .  A
N574        N575   1.320       .  A
N574       Mn577   2.192       .  S
N575        C579   1.349       .  A
Mn576      Cl578   2.548       .  S
Mn577      Cl578   2.549       .  S
C581        C582   1.416       .  A
C581        C896   1.400       .  A
C581        F898   1.357       .  S
C582        C583   1.416   1_556  A
C583        C584   1.400       .  A
C583        F590   1.357       .  S
C584        C585   1.405   1_554  A
C584        F589   1.358       .  S
C585        C896   1.406       .  A
C585        C825   1.501       .  S
C586        C736   1.399       .  A
C586        C740   1.405       .  A
C586        F587   1.358       .  S
F588        C736   1.357       .  S
C591        C592   1.417   1_554  A
C591        C596   1.399       .  A
C591        F598   1.357       .  S
C592        C903   1.415       .  A
C593        C747   1.412       .  A
C593        C594   1.399       .  A
C593        F600   1.357       .  S
C594        C750   1.406       .  A
C594        F599   1.358       .  S
C595        C904   1.405       .  A
C595        C596   1.405   1_556  A
C595        C826   1.499       .  S
C596        F597   1.359       .  S
C601        C912   1.406   1_554  A
C601        C606   1.399       .  A
C601        F918   1.358       .  S
C602        C756   1.406       .  A
C602        C603   1.406       .  A
C603        C604   1.400       .  A
C603        F610   1.358       .  S
C604        C760   1.412       .  A
C604        F764   1.358       .  S
C605        C914   1.412       .  A
C605        C606   1.413   1_556  A
C606        F607   1.358       .  S
F608        C756   1.358       .  S
F609        C914   1.357       .  S
C611        C922   1.405   1_554  A
C611        C616   1.398       .  A
C611        F618   1.358       .  S
C612        C766   1.406       .  A
C612        C613   1.408       .  A
C613        C614   1.400       .  A
C613        F620   1.358       .  S
C614        C770   1.411       .  A
C614        F619   1.358       .  S
C615        C924   1.413       .  A
C615        C616   1.414   1_556  A
C616        F617   1.357       .  S
C621        C626   1.409       .  A
C621        C770   1.495       .  S
C622        C776   1.412       .  A
C622        C623   1.402       .  A
C622        H627   1.082       .  S
C623        C624   1.398       .  A
C623        C699   1.464       .  S
C624        C780   1.397       .  A
C624        H628   1.084       .  S
C625        C626   1.400       .  A
C625        C700   1.464       .  S
C626        H629   1.083       .  S
C630        C635   1.410       .  A
C630        C760   1.498       .  S
C631        C785   1.410       .  A
C631        C632   1.402       .  A
C631        H636   1.083       .  S
C632        C633   1.399       .  A
C632        C722   1.467       .  S
C633        C789   1.399       .  A
C633        H637   1.084       .  S
C634        C635   1.401       .  A
C634        C721   1.465       .  S
C635        H638   1.083       .  S
C639        C644   1.409       .  A
C639        C747   1.496       .  S
C640        C794   1.411       .  A
C640        C641   1.403       .  A
C640        H645   1.083       .  S
C641        C797   1.399       .  A
C641        C711   1.468       .  S
C642        C643   1.399       .  A
C642        H646   1.084       .  S
C643        C644   1.400       .  A
C643        C710   1.465       .  S
C644        H647   1.083       .  S
N648        C653   1.356       .  A
N648       C1582   1.357   1_455  A
N648        H680   1.034       .  S
N649        C657   1.355       .  A
N650        C655   1.357       .  A
N650       C1584   1.356   1_455  A
N650        H681   1.034       .  S
N651        C659   1.355       .  A
C652        C660   1.390       .  A
C652        C668   1.428       .  A
C652       N1578   1.357       .  A
C653        C669   1.423       .  A
C653        C661   1.386       .  A
C654        C662   1.386       .  A
C654        C671   1.422       .  A
C654       N1580   1.356       .  A
C655        C670   1.427       .  A
C655        C663   1.389       .  A
C656        C668   1.424       .  A
C657        C671   1.420       .  A
C657        C665   1.385       .  A
C658        C669   1.421       .  A
C659        C667   1.388       .  A
C659        C670   1.423       .  A
C660       C1591   1.370       .  A
C660        H672   1.080       .  S
C661       C1590   1.370   1_455  A
C661        H673   1.082       .  S
C662       C1593   1.371       .  A
C662        H829   1.082       .  S
C663       C1592   1.370   1_455  A
C663        H830   1.080       .  S
C664        C665   1.367       .  A
C665        H677   1.082       .  S
C666        C667   1.367       .  A
C667        H679   1.081       .  S
C668        C767   1.499       .  S
C669        C757   1.501       .  S
C670        C895   1.500       .  S
C671        C905   1.500       .  S
C682        C687   1.412       .  A
C682        C737   1.505       .  S
C683        C837   1.413       .  A
C683        C684   1.402       .  A
C683        H688   1.082       .  S
C684        C840   1.397       .  A
C684        C734   1.466       .  S
C685        C686   1.398       .  A
C685        H689   1.084       .  S
C686        C687   1.401       .  A
C686        C735   1.465       .  S
C687        H690   1.081       .  S
N691        N692   1.321       .  A
N691        N697   1.316       .  A
N691       Mn720   2.214       .  S
N692        C699   1.353       .  A
N693        N695   1.316       .  A
N693        N694   1.321       .  A
N693       Mn709   2.207       .  S
N694        C700   1.352       .  A
N695        N696   1.321       .  A
N695       Mn720   2.197       .  S
N696        C700   1.350       .  A
N697        N698   1.319       .  A
N697       Mn709   2.190       .  S
N698        C699   1.349       .  A
N701        N707   1.316       .  A
N701        N702   1.321       .  A
N701       Mn731   2.208       .  S
N702        C710   1.352       .  A
N703        N704   1.322       .  A
N703        N705   1.316       .  A
N703       Mn709   2.215       .  S
N704        C711   1.354       .  A
N705        N706   1.320       .  A
N705       Mn731   2.195       .  S
N706        C711   1.350       .  A
N707        N708   1.321       .  A
N707       Mn709   2.196       .  S
N708        C710   1.350       .  A
Mn709      Cl733   2.549       .  S
N712        N713   1.321       .  A
N712        N718   1.316       .  A
N712       Mn720   2.208       .  S
N713        C721   1.352       .  A
N714        N716   1.316       .  A
N714        N715   1.322       .  A
N714       Mn732   2.214       .  S
N715        C722   1.353       .  A
N716        N717   1.320       .  A
N716       Mn720   2.194       .  S
N717        C722   1.350       .  A
N718        N719   1.321       .  A
N718       Mn732   2.198       .  S
N719        C721   1.350       .  A
Mn720      Cl733   2.548       .  S
N723        N724   1.322       .  A
N723        N729   1.316       .  A
N723       Mn731   2.216       .  S
N724        C734   1.354       .  A
N725        N726   1.321       .  A
N725        N727   1.316       .  A
N725       Mn732   2.210       .  S
N726        C735   1.353       .  A
N727        N728   1.321       .  A
N727       Mn731   2.196       .  S
N728        C735   1.350       .  A
N729        N730   1.319       .  A
N729       Mn732   2.191       .  S
N730        C734   1.349       .  A
Mn731      Cl733   2.549       .  S
Mn732      Cl733   2.548       .  S
C736        C737   1.415       .  A
C737        C738   1.416       .  A
C738        C739   1.399       .  A
C738        F745   1.357       .  S
C739        C740   1.405       .  A
C739        F744   1.358       .  S
C741        C891   1.399       .  A
C741        C895   1.406       .  A
C741        F742   1.358       .  S
F743        C891   1.357       .  S
C746        C747   1.413       .  A
C746        C751   1.399       .  A
C746        F753   1.358       .  S
C748        C902   1.411       .  A
C748        C749   1.400       .  A
C748        F755   1.358       .  S
C749        C905   1.406       .  A
C749        F754   1.358       .  S
C750        C751   1.406       .  A
C751        F752   1.358       .  S
C756        C761   1.399       .  A
C757        C911   1.407       .  A
C757        C758   1.407       .  A
C758        C759   1.400       .  A
C758        F765   1.358       .  S
C759        C915   1.411       .  A
C759        F919   1.358       .  S
C760        C761   1.413       .  A
C761        F762   1.357       .  S
F763        C911   1.358       .  S
C766        C771   1.398       .  A
C766        F773   1.358       .  S
C767        C921   1.404       .  A
C767        C768   1.406       .  A
C768        C769   1.400       .  A
C768        F775   1.358       .  S
C769        C925   1.416       .  A
C769        F774   1.357       .  S
C770        C771   1.412       .  A
C771        F772   1.358       .  S
C776        C781   1.413       .  A
C776        C925   1.503       .  S
C777        C778   1.402       .  A
C777        H782   1.082       .  S
C778        C779   1.398       .  A
C778        C854   1.465       .  S
C779        H783   1.084       .  S
C780        C781   1.401       .  A
C780        C855   1.466       .  S
C781        H784   1.081       .  S
C785        C790   1.410       .  A
C785        C915   1.496       .  S
C786        C787   1.402       .  A
C786        H791   1.083       .  S
C787        C788   1.399       .  A
C787        C877   1.466       .  S
C788        H792   1.084       .  S
C789        C790   1.401       .  A
C789        C876   1.466       .  S
C790        H793   1.083       .  S
C794        C799   1.409       .  A
C794        C902   1.496       .  S
C795        C796   1.403       .  A
C795        H800   1.081       .  S
C796        C866   1.468       .  S
C797        C798   1.399       .  A
C797        H801   1.084       .  S
C798        C799   1.401       .  A
C798        C865   1.465       .  S
C799        H802   1.083       .  S
N803        C808   1.357       .  A
N803       C1737   1.358   1_455  A
N803        H835   1.033       .  S
N804        C812   1.354   1_556  A
N805        C810   1.357   1_556  A
N805       C1739   1.356   1_456  A
N805        H836   1.035       .  S
N806        C814   1.355       .  A
C807        C815   1.389       .  A
C807        C823   1.427       .  A
C807       N1733   1.358       .  A
C808        C824   1.425       .  A
C808        C816   1.387   1_556  A
C809        C817   1.389       .  A
C809        C826   1.427       .  A
C809       N1735   1.357       .  A
C810        C825   1.426   1_554  A
C810        C818   1.389       .  A
C811        C823   1.422       .  A
C812        C826   1.422   1_554  A
C812        C820   1.389       .  A
C813        C824   1.421       .  A
C814        C822   1.388       .  A
C814        C825   1.422       .  A
C815       C1746   1.369   1_556  A
C815        H827   1.080   1_556  S
C816       C1745   1.370   1_455  A
C816        H828   1.082       .  S
C817       C1748   1.371       .  A
C818       C1747   1.370   1_455  A
C819        C820   1.367       .  A
C820        H832   1.080       .  S
C821        C822   1.367       .  A
C822        H834   1.080       .  S
C823        C922   1.499       .  S
C824        C912   1.498       .  S
C837        C842   1.412       .  A
C837        C892   1.505       .  S
C838        C839   1.402       .  A
C838        H843   1.081       .  S
C839        C889   1.466       .  S
C840        C841   1.397       .  A
C840        H844   1.084       .  S
C841        C842   1.401       .  A
C841        C890   1.465       .  S
C842        H845   1.081       .  S
N846        N847   1.321       .  A
N846        N852   1.316       .  A
N846       Mn875   2.212       .  S
N847        C854   1.353       .  A
N848        N850   1.316       .  A
N848        N849   1.321       .  A
N848       Mn864   2.211       .  S
N849        C855   1.353       .  A
N850        N851   1.321       .  A
N850       Mn875   2.197       .  S
N851        C855   1.350       .  A
N852        N853   1.320       .  A
N852       Mn864   2.194       .  S
N853        C854   1.350       .  A
N856        N862   1.316       .  A
N856        N857   1.321       .  A
N856       Mn886   2.207       .  S
N857        C865   1.352       .  A
N858        N859   1.322       .  A
N858        N860   1.316       .  A
N858       Mn864   2.217       .  S
N859        C866   1.354       .  A
N860        N861   1.320       .  A
N860       Mn886   2.194       .  S
N861        C866   1.350       .  A
N862        N863   1.321       .  A
N862       Mn864   2.199       .  S
N863        C865   1.351       .  A
Mn864      Cl888   2.548       .  S
N867        N868   1.321       .  A
N867        N873   1.316       .  A
N867       Mn875   2.208       .  S
N868        C876   1.352       .  A
N869        N871   1.316       .  A
N869        N870   1.322       .  A
N869       Mn887   2.215       .  S
N870        C877   1.353       .  A
N871        N872   1.320       .  A
N871       Mn875   2.194       .  S
N872        C877   1.349       .  A
N873        N874   1.321       .  A
N873       Mn887   2.198       .  S
N874        C876   1.351       .  A
Mn875      Cl888   2.549       .  S
N878        N879   1.322       .  A
N878        N884   1.316       .  A
N878       Mn886   2.215       .  S
N879        C889   1.354       .  A
N880        N881   1.321       .  A
N880        N882   1.316       .  A
N880       Mn887   2.211       .  S
N881        C890   1.353       .  A
N882        N883   1.321       .  A
N882       Mn886   2.195       .  S
N883        C890   1.350       .  A
N884        N885   1.320       .  A
N884       Mn887   2.191       .  S
N885        C889   1.349       .  A
Mn886      Cl888   2.550       .  S
Mn887      Cl888   2.549       .  S
C891        C892   1.415       .  A
C892        C893   1.416       .  A
C893        C894   1.399       .  A
C893        F900   1.357       .  S
C894        C895   1.405       .  A
C894        F899   1.358       .  S
C896        F897   1.358       .  S
C901        C902   1.412       .  A
C901        C906   1.400       .  A
C901        F908   1.358       .  S
C903        C904   1.399       .  A
C903        F910   1.357       .  S
C904        F909   1.358       .  S
C905        C906   1.407       .  A
C906        F907   1.358       .  S
C911        C916   1.400       .  A
C912        C913   1.405       .  A
C913        C914   1.399       .  A
C913        F920   1.358       .  S
C915        C916   1.412       .  A
C916        F917   1.358       .  S
C921        C926   1.398       .  A
C921        F928   1.358       .  S
C922        C923   1.406       .  A
C923        C924   1.400       .  A
C923        F930   1.358       .  S
C924        F929   1.358       .  S
C925        C926   1.415       .  A
C926        F927   1.357       .  S
C931       C1242   1.413       .  A
C931        C936   1.412   1_556  A
C931       C1080   1.505       .  S
C932       C1086   1.413       .  A
C932        C933   1.402       .  A
C932        H937   1.081       .  S
C933        C934   1.398       .  A
C933       C1009   1.466       .  S
C934       C1090   1.397       .  A
C934        H938   1.084       .  S
C935       C1244   1.396   1_554  A
C935        C936   1.400       .  A
C935       C1010   1.464       .  S
C936        H939   1.081       .  S
C940       C1251   1.413       .  A
C940        C945   1.413   1_556  A
C940       C1070   1.505       .  S
C941       C1095   1.410       .  A
C941        C942   1.402       .  A
C941        H946   1.083       .  S
C942        C943   1.398       .  A
C942       C1032   1.465       .  S
C943       C1099   1.398       .  A
C943        H947   1.084       .  S
C944       C1253   1.397   1_554  A
C944        C945   1.401       .  A
C944       C1031   1.465       .  S
C945        H948   1.081       .  S
C949       C1260   1.411       .  A
C949        C954   1.410   1_556  A
C949       C1057   1.497       .  S
C950       C1104   1.411       .  A
C950        C951   1.403       .  A
C950        H955   1.083       .  S
C951       C1107   1.399       .  A
C951       C1021   1.467       .  S
C952       C1261   1.399       .  A
C952        C953   1.398   1_556  A
C952        H956   1.084       .  S
C953        C954   1.400       .  A
C953       C1020   1.464       .  S
C954        H957   1.082       .  S
N958        C963   1.356       .  A
N958        H990   1.032       .  S
N959       C1431   1.355   1_545  A
N959        C967   1.355       .  A
N960        C965   1.356       .  A
N960        H991   1.029       .  S
N961       C1433   1.354   1_545  A
N961        C969   1.355       .  A
C962        C970   1.390       .  A
C962        C978   1.426       .  A
C963        C979   1.423       .  A
C963        C971   1.386       .  A
C964        C972   1.386       .  A
C964        C981   1.424       .  A
C965        C980   1.425       .  A
C965        C973   1.387       .  A
C966        C978   1.422       .  A
C966       C1439   1.388       .  A
C966       N1424   1.355       .  A
C967        C981   1.422       .  A
C967        C975   1.386       .  A
C968       C1441   1.386       .  A
C968        C979   1.421       .  A
C968       N1426   1.355       .  A
C969        C977   1.386       .  A
C969        C980   1.422       .  A
C970        H982   1.080       .  S
C971        H983   1.082       .  S
C972       H1139   1.082       .  S
C973       H1140   1.082       .  S
C974       C1431   1.388   1_545  A
C974        C975   1.367       .  A
C974       H1451   1.081   1_545  S
C975        H987   1.081       .  S
C976       C1433   1.388       .  A
C976        C977   1.368   1_565  A
C976       H1453   1.081       .  S
C977        H989   1.082       .  S
C978       C1077   1.498       .  S
C979       C1067   1.499       .  S
C980       C1205   1.499       .  S
C981       C1215   1.500       .  S
H984       C1282   1.081       .  S
H985       C1283   1.081       .  S
H986       C1439   1.081       .  S
H988       C1441   1.082       .  S
C992       C1303   1.412       .  A
C992        C997   1.412   1_556  A
C992       C1047   1.501       .  S
C993       C1147   1.411       .  A
C993        C994   1.402       .  A
C993        H998   1.082       .  S
C994       C1150   1.398       .  A
C994       C1044   1.465       .  S
C995       C1304   1.399       .  A
C995        C996   1.399   1_556  A
C995        H999   1.084       .  S
C996        C997   1.402       .  A
C996       C1045   1.467       .  S
C997       H1000   1.082       .  S
N1001      N1002   1.322       .  A
N1001      N1007   1.316       .  A
N1001     Mn1030   2.216       .  S
N1002      C1009   1.354       .  A
N1003      N1005   1.316       .  A
N1003      N1004   1.320       .  A
N1003     Mn1019   2.207       .  S
N1004      C1010   1.352       .  A
N1005      N1006   1.321       .  A
N1005     Mn1030   2.196       .  S
N1006      C1010   1.350       .  A
N1007      N1008   1.320       .  A
N1007     Mn1019   2.192       .  S
N1008      C1009   1.349       .  A
N1011      N1017   1.316       .  A
N1011      N1012   1.320       .  A
N1011     Mn1041   2.208       .  S
N1012      C1020   1.352       .  A
N1013      N1014   1.322       .  A
N1013      N1015   1.316       .  A
N1013     Mn1019   2.213       .  S
N1014      C1021   1.353       .  A
N1015      N1016   1.320       .  A
N1015     Mn1041   2.196       .  S
N1016      C1021   1.350       .  A
N1017      N1018   1.321       .  A
N1017     Mn1019   2.197       .  S
N1018      C1020   1.350       .  A
Mn1019    Cl1043   2.549       .  S
N1022      N1023   1.320       .  A
N1022      N1028   1.316       .  A
N1022     Mn1030   2.211       .  S
N1023      C1031   1.353       .  A
N1024      N1026   1.316       .  A
N1024      N1025   1.322       .  A
N1024     Mn1042   2.214       .  S
N1025      C1032   1.353       .  A
N1026      N1027   1.319       .  A
N1026     Mn1030   2.190       .  S
N1027      C1032   1.349       .  A
N1028      N1029   1.321       .  A
N1028     Mn1042   2.195       .  S
N1029      C1031   1.350       .  A
Mn1030    Cl1043   2.548       .  S
N1033      N1034   1.322       .  A
N1033      N1039   1.316       .  A
N1033     Mn1041   2.215       .  S
N1034      C1044   1.354       .  A
N1035      N1036   1.321       .  A
N1035      N1037   1.316       .  A
N1035     Mn1042   2.210       .  S
N1036      C1045   1.353       .  A
N1037      N1038   1.321       .  A
N1037     Mn1041   2.199       .  S
N1038      C1045   1.350       .  A
N1039      N1040   1.319       .  A
N1039     Mn1042   2.190       .  S
N1040      C1044   1.349       .  A
Mn1041    Cl1043   2.548       .  S
Mn1042    Cl1043   2.549       .  S
C1046      C1047   1.414       .  A
C1046      C1361   1.400       .  A
C1046      F1363   1.357       .  S
C1047      C1048   1.414   1_556  A
C1048      C1049   1.399       .  A
C1048      F1055   1.357       .  S
C1049      C1050   1.405   1_554  A
C1049      F1054   1.358       .  S
C1050      C1361   1.406       .  A
C1050      C1290   1.500       .  S
C1051      C1201   1.400       .  A
C1051      C1205   1.406       .  A
C1051      F1052   1.358       .  S
F1053      C1201   1.357       .  S
C1056      C1057   1.413   1_554  A
C1056      C1061   1.399       .  A
C1056      F1063   1.358       .  S
C1057      C1368   1.412       .  A
C1058      C1212   1.411       .  A
C1058      C1059   1.400       .  A
C1058      F1065   1.357       .  S
C1059      C1215   1.406       .  A
C1059      F1064   1.358       .  S
C1060      C1369   1.406   1_554  A
C1060      C1061   1.406       .  A
C1060      C1291   1.499       .  S
C1061      F1062   1.358       .  S
C1066      C1377   1.405   1_554  A
C1066      C1071   1.399       .  A
C1066      F1383   1.358       .  S
C1067      C1221   1.406       .  A
C1067      C1068   1.406       .  A
C1068      C1069   1.399       .  A
C1068      F1075   1.358       .  S
C1069      C1225   1.412       .  A
C1069      F1229   1.358       .  S
C1070      C1379   1.416       .  A
C1070      C1071   1.416   1_556  A
C1071      F1072   1.357       .  S
F1073      C1221   1.358       .  S
F1074      C1379   1.357       .  S
C1076      C1387   1.404   1_554  A
C1076      C1081   1.399       .  A
C1076      F1083   1.358       .  S
C1077      C1231   1.404       .  A
C1077      C1078   1.405       .  A
C1078      C1079   1.400       .  A
C1078      F1085   1.358       .  S
C1079      C1235   1.417       .  A
C1079      F1084   1.357       .  S
C1080      C1389   1.415       .  A
C1080      C1081   1.416   1_556  A
C1081      F1082   1.357       .  S
C1086      C1091   1.414       .  A
C1086      C1235   1.506       .  S
C1087      C1241   1.412       .  A
C1087      C1088   1.401       .  A
C1087      H1092   1.081       .  S
C1088      C1089   1.397       .  A
C1088      C1164   1.464       .  S
C1089      C1245   1.397       .  A
C1089      H1093   1.084       .  S
C1090      C1091   1.401       .  A
C1090      C1165   1.467       .  S
C1091      H1094   1.081       .  S
C1095      C1100   1.410       .  A
C1095      C1225   1.496       .  S
C1096      C1250   1.410       .  A
C1096      C1097   1.402       .  A
C1096      H1101   1.083       .  S
C1097      C1098   1.399       .  A
C1097      C1187   1.467       .  S
C1098      C1254   1.399       .  A
C1098      H1102   1.084       .  S
C1099      C1100   1.401       .  A
C1099      C1186   1.465       .  S
C1100      H1103   1.083       .  S
C1104      C1109   1.409       .  A
C1104      C1212   1.497       .  S
C1105      C1259   1.411       .  A
C1105      C1106   1.403       .  A
C1105      H1110   1.083       .  S
C1106      C1262   1.399       .  A
C1106      C1176   1.468       .  S
C1107      C1108   1.399       .  A
C1107      H1111   1.084       .  S
C1108      C1109   1.401       .  A
C1108      C1175   1.465       .  S
C1109      H1112   1.083       .  S
N1113      C1118   1.356       .  A
N1113      H1145   1.034       .  S
N1114      C1586   1.355   1_545  A
N1114      C1122   1.355       .  A
N1115      C1120   1.357       .  A
N1115      H1146   1.032       .  S
N1116      C1588   1.355   1_545  A
N1116      C1124   1.355       .  A
C1117      C1125   1.390       .  A
C1117      C1133   1.426       .  A
C1118      C1134   1.422       .  A
C1118      C1126   1.386       .  A
C1119      C1127   1.386       .  A
C1119      C1136   1.423       .  A
C1120      C1135   1.428       .  A
C1120      C1128   1.390       .  A
C1121      C1133   1.423       .  A
C1121      C1594   1.388       .  A
C1121      N1579   1.354       .  A
C1122      C1136   1.420       .  A
C1122      C1130   1.386       .  A
C1123      C1596   1.386       .  A
C1123      C1134   1.421       .  A
C1123      N1581   1.355       .  A
C1124      C1132   1.388       .  A
C1124      C1135   1.425       .  A
C1125      H1137   1.080       .  S
C1126      H1138   1.082       .  S
C1127      H1294   1.082       .  S
C1128      H1295   1.080       .  S
C1129      C1586   1.388   1_545  A
C1129      C1130   1.367       .  A
C1129      H1606   1.081   1_545  S
C1130      H1142   1.082       .  S
C1131      C1588   1.386       .  A
C1131      C1132   1.367   1_565  A
C1131      H1608   1.082       .  S
C1132      H1144   1.081       .  S
C1133      C1232   1.498       .  S
C1134      C1222   1.501       .  S
C1135      C1360   1.501       .  S
C1136      C1370   1.500       .  S
H1141      C1594   1.081       .  S
H1143      C1596   1.082       .  S
C1147      C1152   1.412       .  A
C1147      C1202   1.501       .  S
C1148      C1302   1.413       .  A
C1148      C1149   1.402       .  A
C1148      H1153   1.082       .  S
C1149      C1305   1.398       .  A
C1149      C1199   1.467       .  S
C1150      C1151   1.398       .  A
C1150      H1154   1.085       .  S
C1151      C1152   1.402       .  A
C1151      C1200   1.466       .  S
C1152      H1155   1.082       .  S
N1156      N1157   1.321       .  A
N1156      N1162   1.316       .  A
N1156     Mn1185   2.213       .  S
N1157      C1164   1.353       .  A
N1158      N1160   1.316       .  A
N1158      N1159   1.321       .  A
N1158     Mn1174   2.213       .  S
N1159      C1165   1.353       .  A
N1160      N1161   1.321       .  A
N1160     Mn1185   2.199       .  S
N1161      C1165   1.350       .  A
N1162      N1163   1.320       .  A
N1162     Mn1174   2.192       .  S
N1163      C1164   1.349       .  A
N1166      N1172   1.316       .  A
N1166      N1167   1.321       .  A
N1166     Mn1196   2.210       .  S
N1167      C1175   1.352       .  A
N1168      N1169   1.323       .  A
N1168      N1170   1.316       .  A
N1168     Mn1174   2.218       .  S
N1169      C1176   1.354       .  A
N1170      N1171   1.320       .  A
N1170     Mn1196   2.192       .  S
N1171      C1176   1.350       .  A
N1172      N1173   1.321       .  A
N1172     Mn1174   2.198       .  S
N1173      C1175   1.350       .  A
Mn1174    Cl1198   2.549       .  S
N1177      N1178   1.321       .  A
N1177      N1183   1.316       .  A
N1177     Mn1185   2.209       .  S
N1178      C1186   1.352       .  A
N1179      N1181   1.316       .  A
N1179      N1180   1.322       .  A
N1179     Mn1197   2.213       .  S
N1180      C1187   1.353       .  A
N1181      N1182   1.320       .  A
N1181     Mn1185   2.196       .  S
N1182      C1187   1.350       .  A
N1183      N1184   1.321       .  A
N1183     Mn1197   2.198       .  S
N1184      C1186   1.350       .  A
Mn1185    Cl1198   2.550       .  S
N1188      N1189   1.322       .  A
N1188      N1194   1.316       .  A
N1188     Mn1196   2.216       .  S
N1189      C1199   1.354       .  A
N1190      N1191   1.321       .  A
N1190      N1192   1.316       .  A
N1190     Mn1197   2.211       .  S
N1191      C1200   1.353       .  A
N1192      N1193   1.320       .  A
N1192     Mn1196   2.195       .  S
N1193      C1200   1.350       .  A
N1194      N1195   1.320       .  A
N1194     Mn1197   2.192       .  S
N1195      C1199   1.349       .  A
Mn1196    Cl1198   2.549       .  S
Mn1197    Cl1198   2.549       .  S
C1201      C1202   1.414       .  A
C1202      C1203   1.414       .  A
C1203      C1204   1.400       .  A
C1203      F1210   1.357       .  S
C1204      C1205   1.405       .  A
C1204      F1209   1.358       .  S
C1206      C1356   1.400       .  A
C1206      C1360   1.406       .  A
C1206      F1207   1.358       .  S
F1208      C1356   1.357       .  S
C1211      C1212   1.412       .  A
C1211      C1216   1.400       .  A
C1211      F1218   1.358       .  S
C1213      C1367   1.411       .  A
C1213      C1214   1.400       .  A
C1213      F1220   1.357       .  S
C1214      C1370   1.406       .  A
C1214      F1219   1.358       .  S
C1215      C1216   1.407       .  A
C1216      F1217   1.358       .  S
C1221      C1226   1.399       .  A
C1222      C1376   1.407       .  A
C1222      C1223   1.406       .  A
C1223      C1224   1.400       .  A
C1223      F1230   1.358       .  S
C1224      C1380   1.412       .  A
C1224      F1384   1.358       .  S
C1225      C1226   1.412       .  A
C1226      F1227   1.357       .  S
F1228      C1376   1.358       .  S
C1231      C1236   1.398       .  A
C1231      F1238   1.358       .  S
C1232      C1386   1.405       .  A
C1232      C1233   1.405       .  A
C1233      C1234   1.399       .  A
C1233      F1240   1.358       .  S
C1234      C1390   1.415       .  A
C1234      F1239   1.357       .  S
C1235      C1236   1.416       .  A
C1236      F1237   1.357       .  S
C1241      C1246   1.412       .  A
C1241      C1390   1.502       .  S
C1242      C1243   1.402       .  A
C1242      H1247   1.081       .  S
C1243      C1244   1.397       .  A
C1243      C1319   1.465       .  S
C1244      H1248   1.085       .  S
C1245      C1246   1.400       .  A
C1245      C1320   1.464       .  S
C1246      H1249   1.081       .  S
C1250      C1255   1.410       .  A
C1250      C1380   1.497       .  S
C1251      C1252   1.401       .  A
C1251      H1256   1.081       .  S
C1252      C1253   1.397       .  A
C1252      C1342   1.465       .  S
C1253      H1257   1.084       .  S
C1254      C1255   1.402       .  A
C1254      C1341   1.467       .  S
C1255      H1258   1.083       .  S
C1259      C1264   1.409       .  A
C1259      C1367   1.497       .  S
C1260      C1261   1.402       .  A
C1260      H1265   1.083       .  S
C1261      C1331   1.466       .  S
C1262      C1263   1.399       .  A
C1262      H1266   1.084       .  S
C1263      C1264   1.401       .  A
C1263      C1330   1.466       .  S
C1264      H1267   1.083       .  S
N1268      C1273   1.357       .  A
N1268      H1300   1.035   1_556  S
N1269      C1741   1.354   1_545  A
N1269      C1277   1.354       .  A
N1270      C1275   1.357   1_554  A
N1270      H1301   1.032       .  S
N1271      C1743   1.354   1_545  A
N1271      C1279   1.354       .  A
C1272      C1280   1.389       .  A
C1272      C1288   1.426   1_554  A
C1273      C1289   1.426       .  A
C1273      C1281   1.389       .  A
C1274      C1282   1.388       .  A
C1274      C1291   1.427       .  A
C1275      C1290   1.426       .  A
C1275      C1283   1.387       .  A
C1276      C1288   1.421       .  A
C1276      C1749   1.388       .  A
C1276      N1734   1.355       .  A
C1277      C1291   1.424   1_556  A
C1277      C1285   1.387       .  A
C1278      C1751   1.388       .  A
C1278      C1289   1.424   1_554  A
C1278      N1736   1.355   1_554  A
C1279      C1287   1.387       .  A
C1279      C1290   1.423       .  A
C1280      H1292   1.080       .  S
C1281      H1293   1.080       .  S
C1284      C1741   1.387   1_545  A
C1284      C1285   1.366       .  A
C1284      H1761   1.081   1_545  S
C1285      H1297   1.081       .  S
C1286      C1743   1.387       .  A
C1286      C1287   1.367   1_565  A
C1286      H1763   1.081       .  S
C1287      H1299   1.081       .  S
C1288      C1387   1.500       .  S
C1289      C1377   1.500       .  S
H1296      C1749   1.080       .  S
H1298      C1751   1.081       .  S
C1302      C1307   1.412       .  A
C1302      C1357   1.504       .  S
C1303      C1304   1.402       .  A
C1303      H1308   1.082       .  S
C1304      C1354   1.467       .  S
C1305      C1306   1.398       .  A
C1305      H1309   1.084       .  S
C1306      C1307   1.401       .  A
C1306      C1355   1.466       .  S
C1307      H1310   1.081       .  S
N1311      N1312   1.321       .  A
N1311      N1317   1.316       .  A
N1311     Mn1340   2.212       .  S
N1312      C1319   1.353       .  A
N1313      N1315   1.316       .  A
N1313      N1314   1.320       .  A
N1313     Mn1329   2.211       .  S
N1314      C1320   1.353       .  A
N1315      N1316   1.321       .  A
N1315     Mn1340   2.193       .  S
N1316      C1320   1.350       .  A
N1317      N1318   1.321       .  A
N1317     Mn1329   2.195       .  S
N1318      C1319   1.350       .  A
N1321      N1327   1.316       .  A
N1321      N1322   1.321       .  A
N1321     Mn1351   2.208       .  S
N1322      C1330   1.352       .  A
N1323      N1324   1.322       .  A
N1323      N1325   1.316       .  A
N1323     Mn1329   2.214       .  S
N1324      C1331   1.353       .  A
N1325      N1326   1.320       .  A
N1325     Mn1351   2.193       .  S
N1326      C1331   1.350       .  A
N1327      N1328   1.321       .  A
N1327     Mn1329   2.201       .  S
N1328      C1330   1.351       .  A
Mn1329    Cl1353   2.549       .  S
N1332      N1333   1.321       .  A
N1332      N1338   1.316       .  A
N1332     Mn1340   2.210       .  S
N1333      C1341   1.352       .  A
N1334      N1336   1.316       .  A
N1334      N1335   1.322       .  A
N1334     Mn1352   2.215       .  S
N1335      C1342   1.353       .  A
N1336      N1337   1.320       .  A
N1336     Mn1340   2.190       .  S
N1337      C1342   1.349       .  A
N1338      N1339   1.321       .  A
N1338     Mn1352   2.200       .  S
N1339      C1341   1.351       .  A
Mn1340    Cl1353   2.549       .  S
N1343      N1344   1.322       .  A
N1343      N1349   1.316       .  A
N1343     Mn1351   2.216       .  S
N1344      C1354   1.354       .  A
N1345      N1346   1.321       .  A
N1345      N1347   1.316       .  A
N1345     Mn1352   2.212       .  S
N1346      C1355   1.353       .  A
N1347      N1348   1.321       .  A
N1347     Mn1351   2.196       .  S
N1348      C1355   1.350       .  A
N1349      N1350   1.320       .  A
N1349     Mn1352   2.193       .  S
N1350      C1354   1.349       .  A
Mn1351    Cl1353   2.550       .  S
Mn1352    Cl1353   2.548       .  S
C1356      C1357   1.415       .  A
C1357      C1358   1.415       .  A
C1358      C1359   1.399       .  A
C1358      F1365   1.357       .  S
C1359      C1360   1.405       .  A
C1359      F1364   1.358       .  S
C1361      F1362   1.358       .  S
C1366      C1367   1.412       .  A
C1366      C1371   1.400       .  A
C1366      F1373   1.358       .  S
C1368      C1369   1.399       .  A
C1368      F1375   1.357       .  S
C1369      F1374   1.358       .  S
C1370      C1371   1.407       .  A
C1371      F1372   1.358       .  S
C1376      C1381   1.400       .  A
C1377      C1378   1.405       .  A
C1378      C1379   1.400       .  A
C1378      F1385   1.358       .  S
C1380      C1381   1.412       .  A
C1381      F1382   1.358       .  S
C1386      C1391   1.397       .  A
C1386      F1393   1.358       .  S
C1387      C1388   1.406       .  A
C1388      C1389   1.400       .  A
C1388      F1395   1.358       .  S
C1389      F1394   1.357       .  S
C1390      C1391   1.415       .  A
C1391      F1392   1.357       .  S
C1396      C1707   1.412       .  A
C1396      C1401   1.411   1_556  A
C1396      C1545   1.501       .  S
C1397      C1551   1.413       .  A
C1397      C1398   1.403       .  A
C1397      H1402   1.082       .  S
C1398      C1399   1.398       .  A
C1398      C1474   1.467       .  S
C1399      C1555   1.398       .  A
C1399      H1403   1.084       .  S
C1400      C1709   1.398   1_554  A
C1400      C1401   1.400       .  A
C1400      C1475   1.465       .  S
C1401      H1404   1.082       .  S
C1405      C1716   1.411       .  A
C1405      C1410   1.411   1_556  A
C1405      C1535   1.499       .  S
C1406      C1560   1.413       .  A
C1406      C1407   1.402       .  A
C1406      H1411   1.082       .  S
C1407      C1408   1.398       .  A
C1407      C1497   1.466       .  S
C1408      C1564   1.397       .  A
C1408      H1412   1.084       .  S
C1409      C1718   1.399   1_554  A
C1409      C1410   1.401       .  A
C1409      C1496   1.466       .  S
C1410      H1413   1.082       .  S
C1414      C1725   1.411       .  A
C1414      C1419   1.408   1_556  A
C1414      C1522   1.494       .  S
C1415      C1569   1.411       .  A
C1415      C1416   1.403       .  A
C1415      H1420   1.083       .  S
C1416      C1572   1.400       .  A
C1416      C1486   1.468       .  S
C1417      C1726   1.400       .  A
C1417      C1418   1.400   1_556  A
C1417      H1421   1.084       .  S
C1418      C1419   1.400       .  A
C1418      C1485   1.465       .  S
C1419      H1422   1.083       .  S
N1423      C1428   1.357       .  A
N1423      H1455   1.032       .  S
N1424      C1432   1.355       .  A
N1425      C1430   1.356       .  A
N1425      H1456   1.032       .  S
N1426      C1434   1.355       .  A
C1427      C1435   1.389       .  A
C1427      C1443   1.427       .  A
C1428      C1444   1.428       .  A
C1428      C1436   1.389       .  A
C1429      C1437   1.386       .  A
C1429      C1446   1.423       .  A
C1430      C1445   1.427       .  A
C1430      C1438   1.389       .  A
C1431      C1443   1.424       .  A
C1432      C1446   1.421       .  A
C1432      C1440   1.386       .  A
C1433      C1444   1.424       .  A
C1434      C1442   1.388       .  A
C1434      C1445   1.423       .  A
C1435      H1447   1.080       .  S
C1436      H1448   1.080       .  S
C1437      H1604   1.082       .  S
C1438      H1605   1.080       .  S
C1439      C1440   1.367       .  A
C1440      H1452   1.082       .  S
C1441      C1442   1.367       .  A
C1442      H1454   1.081       .  S
C1443      C1542   1.500       .  S
C1444      C1532   1.499       .  S
C1445      C1670   1.498       .  S
C1446      C1680   1.499       .  S
H1449      C1747   1.082       .  S
H1450      C1748   1.082       .  S
C1457      C1768   1.410       .  A
C1457      C1462   1.410   1_556  A
C1457      C1512   1.497       .  S
C1458      C1612   1.412       .  A
C1458      C1459   1.401       .  A
C1458      H1463   1.082       .  S
C1459      C1615   1.398       .  A
C1459      C1509   1.466       .  S
C1460      C1769   1.400       .  A
C1460      C1461   1.400   1_556  A
C1460      H1464   1.084       .  S
C1461      C1462   1.403       .  A
C1461      C1510   1.468       .  S
C1462      H1465   1.083       .  S
N1466      N1467   1.322       .  A
N1466      N1472   1.316       .  A
N1466     Mn1495   2.215       .  S
N1467      C1474   1.353       .  A
N1468      N1470   1.316       .  A
N1468      N1469   1.320       .  A
N1468     Mn1484   2.208       .  S
N1469      C1475   1.352       .  A
N1470      N1471   1.321       .  A
N1470     Mn1495   2.197       .  S
N1471      C1475   1.350       .  A
N1472      N1473   1.320       .  A
N1472     Mn1484   2.195       .  S
N1473      C1474   1.350       .  A
N1476      N1482   1.316       .  A
N1476      N1477   1.321       .  A
N1476     Mn1506   2.207       .  S
N1477      C1485   1.352       .  A
N1478      N1479   1.322       .  A
N1478      N1480   1.316       .  A
N1478     Mn1484   2.214       .  S
N1479      C1486   1.354       .  A
N1480      N1481   1.320       .  A
N1480     Mn1506   2.199       .  S
N1481      C1486   1.350       .  A
N1482      N1483   1.321       .  A
N1482     Mn1484   2.198       .  S
N1483      C1485   1.350       .  A
Mn1484    Cl1508   2.549       .  S
N1487      N1488   1.321       .  A
N1487      N1493   1.316       .  A
N1487     Mn1495   2.210       .  S
N1488      C1496   1.353       .  A
N1489      N1491   1.316       .  A
N1489      N1490   1.322       .  A
N1489     Mn1507   2.215       .  S
N1490      C1497   1.353       .  A
N1491      N1492   1.320       .  A
N1491     Mn1495   2.192       .  S
N1492      C1497   1.350       .  A
N1493      N1494   1.321       .  A
N1493     Mn1507   2.197       .  S
N1494      C1496   1.350       .  A
Mn1495    Cl1508   2.550       .  S
N1498      N1499   1.322       .  A
N1498      N1504   1.316       .  A
N1498     Mn1506   2.215       .  S
N1499      C1509   1.354       .  A
N1500      N1501   1.322       .  A
N1500      N1502   1.316       .  A
N1500     Mn1507   2.212       .  S
N1501      C1510   1.353       .  A
N1502      N1503   1.321       .  A
N1502     Mn1506   2.202       .  S
N1503      C1510   1.351       .  A
N1504      N1505   1.320       .  A
N1504     Mn1507   2.192       .  S
N1505      C1509   1.349       .  A
Mn1506    Cl1508   2.549       .  S
Mn1507    Cl1508   2.550       .  S
C1511      C1512   1.411       .  A
C1511      C1826   1.401       .  A
C1511      F1828   1.358       .  S
C1512      C1513   1.411   1_556  A
C1513      C1514   1.401       .  A
C1513      F1520   1.357       .  S
C1514      C1515   1.407   1_554  A
C1514      F1519   1.358       .  S
C1515      C1826   1.408       .  A
C1515      C1755   1.503       .  S
C1516      C1666   1.399       .  A
C1516      C1670   1.405       .  A
C1516      F1517   1.358       .  S
F1518      C1666   1.357       .  S
C1521      C1522   1.412   1_554  A
C1521      C1526   1.400       .  A
C1521      F1528   1.358       .  S
C1522      C1833   1.409       .  A
C1523      C1677   1.412       .  A
C1523      C1524   1.400       .  A
C1523      F1530   1.357       .  S
C1524      C1680   1.406       .  A
C1524      F1529   1.358       .  S
C1525      C1834   1.407       .  A
C1525      C1526   1.408   1_556  A
C1525      C1756   1.500       .  S
C1526      F1527   1.358       .  S
C1531      C1842   1.406   1_554  A
C1531      C1536   1.399       .  A
C1531      F1848   1.358       .  S
C1532      C1686   1.405       .  A
C1532      C1533   1.405       .  A
C1533      C1534   1.399       .  A
C1533      F1540   1.358       .  S
C1534      C1690   1.414       .  A
C1534      F1694   1.357       .  S
C1535      C1844   1.413       .  A
C1535      C1536   1.413   1_556  A
C1536      F1537   1.357       .  S
F1538      C1686   1.358       .  S
F1539      C1844   1.357       .  S
C1541      C1852   1.405   1_554  A
C1541      C1546   1.398       .  A
C1541      F1548   1.358       .  S
C1542      C1696   1.405       .  A
C1542      C1543   1.406       .  A
C1543      C1544   1.400       .  A
C1543      F1550   1.358       .  S
C1544      C1700   1.415       .  A
C1544      F1549   1.357       .  S
C1545      C1854   1.414       .  A
C1545      C1546   1.414   1_556  A
C1546      F1547   1.357       .  S
C1551      C1556   1.413       .  A
C1551      C1700   1.504       .  S
C1552      C1706   1.412       .  A
C1552      C1553   1.402       .  A
C1552      H1557   1.081       .  S
C1553      C1554   1.398       .  A
C1553      C1629   1.464       .  S
C1554      C1710   1.397       .  A
C1554      H1558   1.084       .  S
C1555      C1556   1.401       .  A
C1555      C1630   1.467       .  S
C1556      H1559   1.081       .  S
C1560      C1565   1.411       .  A
C1560      C1690   1.502       .  S
C1561      C1715   1.411       .  A
C1561      C1562   1.403       .  A
C1561      H1566   1.083       .  S
C1562      C1563   1.399       .  A
C1562      C1652   1.468       .  S
C1563      C1719   1.399       .  A
C1563      H1567   1.084       .  S
C1564      C1565   1.400       .  A
C1564      C1651   1.464       .  S
C1565      H1568   1.081       .  S
C1569      C1574   1.409       .  A
C1569      C1677   1.497       .  S
C1570      C1724   1.410       .  A
C1570      C1571   1.403       .  A
C1570      H1575   1.083       .  S
C1571      C1727   1.400       .  A
C1571      C1641   1.468       .  S
C1572      C1573   1.399       .  A
C1572      H1576   1.084       .  S
C1573      C1574   1.401       .  A
C1573      C1640   1.466       .  S
C1574      H1577   1.083       .  S
N1578      C1583   1.357       .  A
N1578      H1610   1.032       .  S
N1579      C1587   1.354       .  A
N1580      C1585   1.357       .  A
N1580      H1611   1.034       .  S
N1581      C1589   1.355       .  A
C1582      C1590   1.390       .  A
C1582      C1598   1.427       .  A
C1583      C1599   1.424       .  A
C1583      C1591   1.386       .  A
C1584      C1592   1.386       .  A
C1584      C1601   1.422       .  A
C1585      C1600   1.426       .  A
C1585      C1593   1.389       .  A
C1586      C1598   1.423       .  A
C1587      C1601   1.420       .  A
C1587      C1595   1.386       .  A
C1588      C1599   1.422       .  A
C1589      C1597   1.388       .  A
C1589      C1600   1.423       .  A
C1590      H1602   1.080       .  S
C1591      H1603   1.082       .  S
C1592      H1759   1.082       .  S
C1593      H1760   1.080       .  S
C1594      C1595   1.367       .  A
C1595      H1607   1.082       .  S
C1596      C1597   1.368       .  A
C1597      H1609   1.081       .  S
C1598      C1697   1.499       .  S
C1599      C1687   1.502       .  S
C1600      C1825   1.500       .  S
C1601      C1835   1.499       .  S
C1612      C1617   1.412       .  A
C1612      C1667   1.502       .  S
C1613      C1767   1.414       .  A
C1613      C1614   1.403       .  A
C1613      H1618   1.081       .  S
C1614      C1770   1.398       .  A
C1614      C1664   1.467       .  S
C1615      C1616   1.398       .  A
C1615      H1619   1.084       .  S
C1616      C1617   1.401       .  A
C1616      C1665   1.465       .  S
C1617      H1620   1.081       .  S
N1621      N1622   1.321       .  A
N1621      N1627   1.316       .  A
N1621     Mn1650   2.214       .  S
N1622      C1629   1.353       .  A
N1623      N1625   1.316       .  A
N1623      N1624   1.320       .  A
N1623     Mn1639   2.210       .  S
N1624      C1630   1.352       .  A
N1625      N1626   1.322       .  A
N1625     Mn1650   2.200       .  S
N1626      C1630   1.351       .  A
N1627      N1628   1.319       .  A
N1627     Mn1639   2.190       .  S
N1628      C1629   1.349       .  A
N1631      N1637   1.316       .  A
N1631      N1632   1.320       .  A
N1631     Mn1661   2.208       .  S
N1632      C1640   1.352       .  A
N1633      N1634   1.323       .  A
N1633      N1635   1.316       .  A
N1633     Mn1639   2.217       .  S
N1634      C1641   1.354       .  A
N1635      N1636   1.320       .  A
N1635     Mn1661   2.194       .  S
N1636      C1641   1.350       .  A
N1637      N1638   1.321       .  A
N1637     Mn1639   2.200       .  S
N1638      C1640   1.351       .  A
Mn1639    Cl1663   2.549       .  S
N1642      N1643   1.320       .  A
N1642      N1648   1.316       .  A
N1642     Mn1650   2.209       .  S
N1643      C1651   1.352       .  A
N1644      N1646   1.316       .  A
N1644      N1645   1.322       .  A
N1644     Mn1662   2.214       .  S
N1645      C1652   1.353       .  A
N1646      N1647   1.320       .  A
N1646     Mn1650   2.198       .  S
N1647      C1652   1.350       .  A
N1648      N1649   1.321       .  A
N1648     Mn1662   2.196       .  S
N1649      C1651   1.350       .  A
Mn1650    Cl1663   2.549       .  S
N1653      N1654   1.322       .  A
N1653      N1659   1.316       .  A
N1653     Mn1661   2.218       .  S
N1654      C1664   1.354       .  A
N1655      N1656   1.320       .  A
N1655      N1657   1.316       .  A
N1655     Mn1662   2.209       .  S
N1656      C1665   1.352       .  A
N1657      N1658   1.321       .  A
N1657     Mn1661   2.197       .  S
N1658      C1665   1.350       .  A
N1659      N1660   1.320       .  A
N1659     Mn1662   2.190       .  S
N1660      C1664   1.349       .  A
Mn1661    Cl1663   2.548       .  S
Mn1662    Cl1663   2.550       .  S
C1666      C1667   1.415       .  A
C1667      C1668   1.415       .  A
C1668      C1669   1.399       .  A
C1668      F1675   1.357       .  S
C1669      C1670   1.405       .  A
C1669      F1674   1.358       .  S
C1671      C1821   1.400       .  A
C1671      C1825   1.405       .  A
C1671      F1672   1.358       .  S
F1673      C1821   1.357       .  S
C1676      C1677   1.413       .  A
C1676      C1681   1.400       .  A
C1676      F1683   1.358       .  S
C1678      C1832   1.411       .  A
C1678      C1679   1.399       .  A
C1678      F1685   1.358       .  S
C1679      C1835   1.406       .  A
C1679      F1684   1.358       .  S
C1680      C1681   1.407       .  A
C1681      F1682   1.358       .  S
C1686      C1691   1.399       .  A
C1687      C1841   1.407       .  A
C1687      C1688   1.406       .  A
C1688      C1689   1.401       .  A
C1688      F1695   1.358       .  S
C1689      C1845   1.413       .  A
C1689      F1849   1.358       .  S
C1690      C1691   1.415       .  A
C1691      F1692   1.357       .  S
F1693      C1841   1.358       .  S
C1696      C1701   1.399       .  A
C1696      F1703   1.358       .  S
C1697      C1851   1.404       .  A
C1697      C1698   1.406       .  A
C1698      C1699   1.400       .  A
C1698      F1705   1.358       .  S
C1699      C1855   1.416       .  A
C1699      F1704   1.357       .  S
C1700      C1701   1.415       .  A
C1701      F1702   1.357       .  S
C1706      C1711   1.413       .  A
C1706      C1855   1.504       .  S
C1707      C1708   1.402       .  A
C1707      H1712   1.082       .  S
C1708      C1709   1.398       .  A
C1708      C1784   1.465       .  S
C1709      H1713   1.084       .  S
C1710      C1711   1.401       .  A
C1710      C1785   1.466       .  S
C1711      H1714   1.081       .  S
C1715      C1720   1.411       .  A
C1715      C1845   1.500       .  S
C1716      C1717   1.402       .  A
C1716      H1721   1.083       .  S
C1717      C1718   1.399       .  A
C1717      C1807   1.467       .  S
C1718      H1722   1.084       .  S
C1719      C1720   1.403       .  A
C1719      C1806   1.469       .  S
C1720      H1723   1.083       .  S
C1724      C1729   1.409       .  A
C1724      C1832   1.495       .  S
C1725      C1726   1.403       .  A
C1725      H1730   1.083       .  S
C1726      C1796   1.469       .  S
C1727      C1728   1.399       .  A
C1727      H1731   1.084       .  S
C1728      C1729   1.401       .  A
C1728      C1795   1.465       .  S
C1729      H1732   1.083       .  S
N1733      C1738   1.358       .  A
N1733      H1765   1.034       .  S
N1734      C1742   1.355       .  A
N1735      C1740   1.357       .  A
N1735      H1766   1.035   1_556  S
N1736      C1744   1.355   1_556  A
C1737      C1745   1.389   1_556  A
C1737      C1753   1.428       .  A
C1738      C1754   1.425       .  A
C1738      C1746   1.387   1_556  A
C1739      C1747   1.386       .  A
C1739      C1756   1.421   1_554  A
C1740      C1755   1.423       .  A
C1740      C1748   1.386       .  A
C1741      C1753   1.423       .  A
C1742      C1756   1.419       .  A
C1742      C1750   1.385       .  A
C1743      C1754   1.422       .  A
C1744      C1752   1.385       .  A
C1744      C1755   1.420   1_554  A
C1745      H1757   1.080       .  S
C1746      H1758   1.082       .  S
C1749      C1750   1.367       .  A
C1750      H1762   1.082       .  S
C1751      C1752   1.368       .  A
C1752      H1764   1.082       .  S
C1753      C1852   1.500       .  S
C1754      C1842   1.501       .  S
C1767      C1772   1.413       .  A
C1767      C1822   1.507       .  S
C1768      C1769   1.403       .  A
C1768      H1773   1.083       .  S
C1769      C1819   1.468       .  S
C1770      C1771   1.397       .  A
C1770      H1774   1.084       .  S
C1771      C1772   1.401       .  A
C1771      C1820   1.467       .  S
C1772      H1775   1.081       .  S
N1776      N1777   1.321       .  A
N1776      N1782   1.316       .  A
N1776     Mn1805   2.214       .  S
N1777      C1784   1.353       .  A
N1778      N1780   1.316       .  A
N1778      N1779   1.321       .  A
N1778     Mn1794   2.211       .  S
N1779      C1785   1.353       .  A
N1780      N1781   1.321       .  A
N1780     Mn1805   2.197       .  S
N1781      C1785   1.350       .  A
N1782      N1783   1.320       .  A
N1782     Mn1794   2.193       .  S
N1783      C1784   1.350       .  A
N1786      N1792   1.316       .  A
N1786      N1787   1.320       .  A
N1786     Mn1816   2.207       .  S
N1787      C1795   1.352       .  A
N1788      N1789   1.323       .  A
N1788      N1790   1.316       .  A
N1788     Mn1794   2.218       .  S
N1789      C1796   1.354       .  A
N1790      N1791   1.320       .  A
N1790     Mn1816   2.196       .  S
N1791      C1796   1.350       .  A
N1792      N1793   1.321       .  A
N1792     Mn1794   2.200       .  S
N1793      C1795   1.351       .  A
Mn1794    Cl1818   2.550       .  S
N1797      N1798   1.321       .  A
N1797      N1803   1.316       .  A
N1797     Mn1805   2.209       .  S
N1798      C1806   1.352       .  A
N1799      N1801   1.316       .  A
N1799      N1800   1.322       .  A
N1799     Mn1817   2.217       .  S
N1800      C1807   1.354       .  A
N1801      N1802   1.320       .  A
N1801     Mn1805   2.193       .  S
N1802      C1807   1.349       .  A
N1803      N1804   1.322       .  A
N1803     Mn1817   2.204       .  S
N1804      C1806   1.352       .  A
Mn1805    Cl1818   2.550       .  S
N1808      N1809   1.323       .  A
N1808      N1814   1.317       .  A
N1808     Mn1816   2.217       .  S
N1809      C1819   1.354       .  A
N1810      N1811   1.321       .  A
N1810      N1812   1.316       .  A
N1810     Mn1817   2.210       .  S
N1811      C1820   1.353       .  A
N1812      N1813   1.321       .  A
N1812     Mn1816   2.199       .  S
N1813      C1820   1.350       .  A
N1814      N1815   1.320       .  A
N1814     Mn1817   2.197       .  S
N1815      C1819   1.350       .  A
Mn1816    Cl1818   2.551       .  S
Mn1817    Cl1818   2.549       .  S
C1821      C1822   1.416       .  A
C1822      C1823   1.417       .  A
C1823      C1824   1.400       .  A
C1823      F1830   1.357       .  S
C1824      C1825   1.404       .  A
C1824      F1829   1.358       .  S
C1826      F1827   1.358       .  S
C1831      C1832   1.412       .  A
C1831      C1836   1.399       .  A
C1831      F1838   1.358       .  S
C1833      C1834   1.399       .  A
C1833      F1840   1.358       .  S
C1834      F1839   1.358       .  S
C1835      C1836   1.407       .  A
C1836      F1837   1.358       .  S
C1841      C1846   1.401       .  A
C1842      C1843   1.406       .  A
C1843      C1844   1.400       .  A
C1843      F1850   1.358       .  S
C1845      C1846   1.413       .  A
C1846      F1847   1.357       .  S
C1851      C1856   1.397       .  A
C1851      F1858   1.358       .  S
C1852      C1853   1.406       .  A
C1853      C1854   1.400       .  A
C1853      F1860   1.358       .  S
C1854      F1859   1.357       .  S
C1855      C1856   1.415       .  A
C1856      F1857   1.357       .  S
