geometry optimzed in LAMMPS
_audit_creation_date              2020-11-30 
_audit_creation_method            'lammps2cif' 
_symmetry_space_group_name_H-M    'P1' 
_symmetry_Int_Tables_number       1 
_symmetry_cell_setting            triclinic 
loop_ 
_symmetry_equiv_pos_as_xyz 
  x,y,z 
_cell_length_a                    57.46747074 
_cell_length_b                    57.473864890451715 
_cell_length_c                    57.37217076300043 
_cell_angle_alpha                 90.06191539055683 
_cell_angle_beta                  89.67261483186381 
_cell_angle_gamma                 90.3105201136024 
loop_ 
_atom_site_label 
_atom_site_type_symbol 
_atom_site_fract_x 
_atom_site_fract_y 
_atom_site_fract_z 
_atom_site_charge 
Zn1        Zn  0.71842355  0.72916631  0.77285543     1.49700
Zn2        Zn  0.75684124  0.72626183  0.73329995     1.49400
Zn3        Zn  0.72105177  0.76912496  0.73472593     1.49100
Zn4        Zn  0.76063117  0.76538368  0.77176500     1.49500
O5          O  0.73910702  0.74730739  0.75310918    -1.82800
O6          O  0.72090831  0.69469593  0.76605352    -0.73400
O7          O  0.75117672  0.73424476  0.69974190    -0.73300
O8          O  0.68686680  0.76294229  0.73790794    -0.72800
O9          O  0.74950227  0.69230290  0.73994069    -0.73400
O10         O  0.68525987  0.73936325  0.76862867    -0.73000
O11         O  0.73079188  0.76712978  0.70135564    -0.73600
O12         O  0.75127311  0.79901592  0.77351780    -0.73000
O13         O  0.79128172  0.73136532  0.73729215    -0.73800
O14         O  0.72476403  0.80224647  0.74580009    -0.73200
O15         O  0.79317529  0.76350900  0.75880284    -0.73600
O16         O  0.76056117  0.75325881  0.80453833    -0.73500
O17         O  0.72766935  0.73268629  0.80638981    -0.73300
C18         C  0.73459881  0.68265795  0.75340881     0.78500
C19         C  0.74217661  0.75192473  0.68996040     0.78900
C20         C  0.67535137  0.75214785  0.75354029     0.77900
C21         C  0.73694706  0.81117293  0.76197143     0.78300
C22         C  0.80288966  0.74791335  0.74640536     0.79400
C23         C  0.74560583  0.74144882  0.81602072     0.78500
Zn24       Zn  0.21908633  0.76188289  0.77599466     1.49700
Zn25       Zn  0.26020382  0.72402882  0.77545198     1.49400
Zn26       Zn  0.22060100  0.72376044  0.73570822     1.49100
Zn27       Zn  0.25897067  0.76382282  0.73732165     1.49500
O28         O  0.23963991  0.74322286  0.75624906    -1.82800
O29         O  0.22208050  0.75210088  0.80977320    -0.73400
O30         O  0.25432808  0.68990969  0.76903241    -0.73300
O31         O  0.18629084  0.72981331  0.74032527    -0.72800
O32         O  0.25247700  0.72826573  0.80934765    -0.73400
O33         O  0.18526714  0.75854990  0.76624482    -0.73000
O34         O  0.22646071  0.68999060  0.74221529    -0.73600
O35         O  0.25221902  0.76016953  0.70375741    -0.73000
O36         O  0.29461890  0.73191196  0.77012894    -0.73800
O37         O  0.22746225  0.73043312  0.70170825    -0.73200
O38         O  0.29266654  0.75704984  0.74082761    -0.73600
O39         O  0.25472071  0.79742960  0.74573822    -0.73500
O40         O  0.22775750  0.79590537  0.77360718    -0.73300
C41         C  0.23654073  0.73909849  0.82029508     0.78500
C42         C  0.24009720  0.67918874  0.75581750     0.78900
C43         C  0.17500039  0.74466464  0.75227951     0.77900
C44         C  0.24000803  0.74600624  0.69197965     0.78300
C45         C  0.30442002  0.74500417  0.75499351     0.79400
C46         C  0.24181870  0.80741317  0.76073907     0.78500
N47         N  0.77183410  0.75896331  0.50436340    -0.02200
C48         C  0.75697330  0.76338973  0.48656352     0.00400
C49         C  0.73452776  0.76607496  0.49487845    -0.22400
C50         C  0.73543329  0.76355893  0.51852303    -0.22700
C51         C  0.75837882  0.75935896  0.52393636     0.00300
H52         H  0.71910576  0.76971034  0.48480371     0.14100
H53         H  0.72100445  0.76523079  0.53061054     0.14200
N54         N  0.98936459  0.76130602  0.73356486    -0.02200
C55         C  0.97026226  0.76206296  0.74762732     0.00400
C56         C  0.97653237  0.76504288  0.77061087    -0.22400
C57         C  0.00031890  0.76616818  0.77094331    -0.22700
C58         C  0.00776016  0.76394856  0.74812809     0.00300
H59         H  0.96496878  0.76695588  0.78544051     0.14100
H60         H  0.01107754  0.76874202  0.78616285     0.14200
N61         N  0.00551618  0.76023463  0.27488086    -0.02200
C62         C  0.98697320  0.76328669  0.26067027     0.00400
C63         C  0.99362515  0.76146625  0.23758224    -0.22400
C64         C  0.01701849  0.75699610  0.23746558    -0.22700
C65         C  0.02394235  0.75647604  0.26049439     0.00300
H66         H  0.98250688  0.76259256  0.22246571     0.14100
H67         H  0.02792582  0.75484019  0.22218268     0.14200
N68         N  0.97741855  0.75498235  0.47757455    -0.35300
N69         N  0.02797573  0.75288972  0.47968263    -0.55800
N70         N  0.02537760  0.76049822  0.52987589    -0.35300
N71         N  0.97473116  0.75896798  0.52816813    -0.55800
C72         C  0.98254903  0.74788876  0.45563439     0.28300
C73         C  0.95443538  0.75099910  0.48115323     0.28300
C74         C  0.04798047  0.75446017  0.52714690     0.28300
C75         C  0.02000118  0.75780419  0.55272785     0.28300
C76         C  0.02529386  0.75503580  0.45639614     0.36900
C77         C  0.05061956  0.75753280  0.48407043     0.36900
C78         C  0.95212928  0.76272253  0.52292480     0.36900
C79         C  0.97755992  0.76568317  0.55060064     0.36900
C80         C  0.96258216  0.73926356  0.44516313    -0.20600
C81         C  0.94484458  0.74124367  0.46125374    -0.20600
C82         C  0.05703674  0.74781477  0.54844015    -0.20600
C83         C  0.03938337  0.74986016  0.56456423    -0.20600
C84         C  0.04632434  0.76108332  0.44600366    -0.21600
C85         C  0.06239502  0.76251569  0.46352607    -0.21600
C86         C  0.94052193  0.77166581  0.54216245    -0.21600
C87         C  0.95663660  0.77359796  0.55966436    -0.21600
C88         C  0.00438927  0.75048932  0.44431895    -0.17000
C89         C  0.94162228  0.75733227  0.50130811    -0.17000
C90         C  0.99845011  0.76342869  0.56336371    -0.17000
C91         C  0.06101432  0.75614804  0.50624775    -0.17000
H92         H  0.96089882  0.73247230  0.42764701     0.15900
H93         H  0.92687139  0.73626891  0.45852279     0.15900
H94         H  0.07458408  0.74213691  0.55201288     0.15900
H95         H  0.04072699  0.74593906  0.58294684     0.15900
H96         H  0.04979780  0.76423472  0.42772413     0.14200
H97         H  0.08063359  0.76683868  0.46137678     0.14200
H98         H  0.92234890  0.77636539  0.54346092     0.14200
H99         H  0.95329094  0.78006561  0.57707703     0.14200
H100        H  0.98828789  0.76456585  0.48839074     0.27500
H101        H  0.01507808  0.76854873  0.51745319     0.27500
N102        N  0.23025389  0.74621336  0.50468076    -0.02200
C103        C  0.24491544  0.74726618  0.52309460     0.00400
C104        C  0.26774951  0.74499018  0.51571187    -0.22400
C105        C  0.26717713  0.74231530  0.49202284    -0.22700
C106        C  0.24404118  0.74320016  0.48573304     0.00300
H107        H  0.28315110  0.74465590  0.52647424     0.14100
H108        H  0.28204726  0.74014013  0.48057845     0.14200
Zn109      Zn  0.27683991  0.76906591  0.23323321     1.49700
Zn110      Zn  0.23647341  0.73100407  0.23684733     1.49400
Zn111      Zn  0.27488472  0.73332570  0.27516113     1.49100
Zn112      Zn  0.23778074  0.77375769  0.27346845     1.49500
O113        O  0.25628060  0.75205082  0.25447192    -1.82800
O114        O  0.27224591  0.75850055  0.19954607    -0.73400
O115        O  0.24376269  0.69719376  0.24321140    -0.73300
O116        O  0.30782085  0.74413651  0.27542263    -0.72800
O117        O  0.24146344  0.73500114  0.20238555    -0.73400
O118        O  0.31044373  0.76626816  0.24375751    -0.73000
O119        O  0.27389095  0.69948071  0.26713968    -0.73600
O120        O  0.24150278  0.76767446  0.30815707    -0.73000
O121        O  0.20303926  0.73742951  0.24459776    -0.73800
O122        O  0.26354501  0.73607867  0.30757121    -0.73200
O123        O  0.20340639  0.76876521  0.26749670    -0.73600
O124        O  0.24688372  0.80713135  0.26598717    -0.73500
O125        O  0.27037509  0.80346880  0.23519778    -0.73300
C126        C  0.25675220  0.74555585  0.19017270     0.78500
C127        C  0.25985206  0.68757315  0.25487293     0.78900
C128        C  0.31960463  0.75688942  0.26161858     0.77900
C129        C  0.25133503  0.75083905  0.31855391     0.78300
C130        C  0.19244896  0.75293531  0.25641843     0.79400
C131        C  0.25942603  0.81605088  0.24983966     0.78500
Zn132      Zn  0.77689213  0.73083290  0.27218754     1.49700
Zn133      Zn  0.73779875  0.77014561  0.27313797     1.49400
Zn134      Zn  0.77386862  0.76655559  0.23023805     1.49100
Zn135      Zn  0.73531843  0.72782689  0.23603496     1.49500
O136        O  0.75580127  0.74894220  0.25303252    -1.82800
O137        O  0.77085205  0.73585304  0.30632833    -0.73400
O138        O  0.74334451  0.80382506  0.26366060    -0.73300
O139        O  0.80796696  0.76645219  0.23810600    -0.72800
O140        O  0.74611940  0.76547267  0.30734870    -0.73400
O141        O  0.81005372  0.74040290  0.26657850    -0.73000
O142        O  0.76398519  0.79976778  0.23095782    -0.73600
O143        O  0.73965043  0.73020090  0.20117258    -0.73000
O144        O  0.70308223  0.76407184  0.26925190    -0.73800
O145        O  0.76977633  0.75424146  0.19740491    -0.73200
O146        O  0.70212096  0.73473422  0.24387989    -0.73600
O147        O  0.74245784  0.69431820  0.24302202    -0.73500
O148        O  0.77383353  0.69677553  0.26537057    -0.73300
C149        C  0.75895508  0.75067557  0.31767971     0.78500
C150        C  0.75303568  0.81239459  0.24552326     0.78900
C151        C  0.81966977  0.75505883  0.25295322     0.77900
C152        C  0.75487807  0.74036024  0.18856705     0.78300
C153        C  0.69181214  0.74946757  0.25686088     0.79400
C154        C  0.75912597  0.68481463  0.25390767     0.78500
N155        N  0.75180729  0.72304545  0.00297149    -0.02200
C156        C  0.74941222  0.73593008  0.98329772     0.00400
C157        C  0.75275289  0.75927090  0.98816875    -0.22400
C158        C  0.75771139  0.76087096  0.01145150    -0.22700
C159        C  0.75721076  0.73846791  0.02009494     0.00300
H160        H  0.75297701  0.77346393  0.97577875     0.14100
H161        H  0.76180405  0.77663966  0.02094397     0.14200
N162        N  0.73571496  0.49647700  0.77025275    -0.02200
C163        C  0.73805410  0.51341514  0.75396340     0.00400
C164        C  0.73455466  0.50440014  0.73193246    -0.22400
C165        C  0.72973050  0.48112823  0.73475767    -0.22700
C166        C  0.73065453  0.47666962  0.75842512     0.00300
H167        H  0.73532739  0.51375980  0.71558446     0.14100
H168        H  0.72678824  0.46861474  0.72095724     0.14200
N169        N  0.77294212  0.26570545  0.99873866    -0.02200
C170        C  0.77826641  0.25239887  0.98000662     0.00400
C171        C  0.78423606  0.23020338  0.98688530    -0.22400
C172        C  0.78232206  0.22977131  0.01078721    -0.22700
C173        C  0.77537363  0.25175171  0.01754169     0.00300
H174        H  0.78826728  0.21559788  0.97567433     0.14100
H175        H  0.78513718  0.21492128  0.02198883     0.14200
N176        N  0.74996671  0.46924199  0.97384489    -0.35300
N177        N  0.74607831  0.46728766  0.02467024    -0.55800
N178        N  0.74647735  0.51821316  0.02585561    -0.35300
N179        N  0.74746976  0.51967816  0.97513878    -0.55800
C180        C  0.74696874  0.44609447  0.97720948     0.28300
C181        C  0.74538768  0.47369681  0.95109871     0.28300
C182        C  0.74074501  0.51336274  0.04827864     0.28300
C183        C  0.74162632  0.54098356  0.02220974     0.28300
C184        C  0.75162609  0.44478955  0.02043581     0.36900
C185        C  0.74851931  0.47066981  0.04790171     0.36900
C186        C  0.75109915  0.51674198  0.95200088     0.36900
C187        C  0.75030578  0.54262164  0.97957763     0.36900
C188        C  0.74068095  0.43568005  0.95634684    -0.20600
C189        C  0.73972047  0.45302705  0.93991004    -0.20600
C190        C  0.73233763  0.53328425  0.05901669    -0.20600
C191        C  0.73288601  0.55069794  0.04257746    -0.20600
C192        C  0.75727694  0.43379727  0.04114320    -0.21600
C193        C  0.75519804  0.45013611  0.05851832    -0.21600
C194        C  0.75625778  0.53795873  0.94168594    -0.21600
C195        C  0.75596751  0.55430316  0.95917306    -0.21600
C196        C  0.75103006  0.43387902  0.99823973    -0.17000
C197        C  0.74756857  0.49559824  0.93982758    -0.17000
C198        C  0.74577310  0.55345441  0.00128555    -0.17000
C199        C  0.74440640  0.49190125  0.05975785    -0.17000
H200        H  0.73724844  0.41740891  0.95322489     0.15900
H201        H  0.73573018  0.45051478  0.92167392     0.15900
H202        H  0.72655511  0.53512849  0.07691278     0.15900
H203        H  0.72755845  0.56852678  0.04536210     0.15900
H204        H  0.76251416  0.41591349  0.04355285     0.14200
H205        H  0.75852139  0.44727318  0.07683936     0.14200
H206        H  0.75952167  0.54142365  0.92342654     0.14200
H207        H  0.75899216  0.57277693  0.95698636     0.14200
H208        H  0.75717543  0.48067663  0.98573660     0.27500
H209        H  0.75552062  0.50746835  0.01469605     0.27500
N210        N  0.76382544  0.49952443  0.22832890    -0.02200
C211        C  0.76067751  0.48114822  0.24288532     0.00400
C212        C  0.76488368  0.48765261  0.26566466    -0.22400
C213        C  0.77081008  0.51077835  0.26519396    -0.22700
C214        C  0.76983482  0.51772546  0.24215303     0.00300
H215        H  0.76393894  0.47669206  0.28097134     0.14100
H216        H  0.77438703  0.52161825  0.28020521     0.14200
Zn217      Zn  0.77185526  0.22944737  0.26862313     1.49700
Zn218      Zn  0.73404172  0.22888773  0.22846771     1.49400
Zn219      Zn  0.73143193  0.26784094  0.26795432     1.49100
Zn220      Zn  0.77269243  0.26936703  0.23006705     1.49500
O221        O  0.75254979  0.24899541  0.24881800    -1.82800
O222        O  0.76729252  0.19535597  0.26154790    -0.73400
O223        O  0.70010865  0.23094438  0.23584770    -0.73300
O224        O  0.73911709  0.26410669  0.30205157    -0.72800
O225        O  0.74206875  0.19525728  0.23236361    -0.73400
O226        O  0.76510682  0.23555298  0.30250055    -0.73000
O227        O  0.69783643  0.25756621  0.26384415    -0.73600
O228        O  0.76417723  0.30315246  0.23483872    -0.73000
O229        O  0.73885682  0.23715049  0.19486528    -0.73800
O230        O  0.73427336  0.30205149  0.25960692    -0.73200
O231        O  0.76772552  0.26306120  0.19595564    -0.73600
O232        O  0.80696663  0.26477562  0.23753218    -0.73500
O233        O  0.80578075  0.23644921  0.26383844    -0.73300
C234        C  0.75519115  0.18454340  0.24645510     0.78500
C235        C  0.68828001  0.24267031  0.25042838     0.78900
C236        C  0.75239589  0.25029705  0.31307262     0.77900
C237        C  0.74826064  0.31336738  0.24647204     0.78300
C238        C  0.75327897  0.25060869  0.18463689     0.79400
C239        C  0.81718762  0.25079369  0.25130871     0.78500
Zn240      Zn  0.77014123  0.22540356  0.72902098     1.49700
Zn241      Zn  0.77569551  0.26887342  0.76329184     1.49400
Zn242      Zn  0.73348608  0.26518915  0.72868492     1.49100
Zn243      Zn  0.73582477  0.23073081  0.77211624     1.49500
O244        O  0.75386978  0.24749020  0.74859333    -1.82800
O245        O  0.80443154  0.23058525  0.73120396    -0.73400
O246        O  0.76429231  0.30231958  0.76087374    -0.73300
O247        O  0.74462935  0.26393861  0.69494140    -0.72800
O248        O  0.80835703  0.26451553  0.74962616    -0.73400
O249        O  0.76375167  0.23044692  0.69510925    -0.73000
O250        O  0.73232750  0.29853292  0.73953158    -0.73600
O251        O  0.70177915  0.23472607  0.76609392    -0.73000
O252        O  0.77628395  0.26273249  0.79791515    -0.73800
O253        O  0.70089915  0.25222380  0.73146803    -0.73200
O254        O  0.74413783  0.24186793  0.80471946    -0.73600
O255        O  0.74042083  0.19565907  0.76927451    -0.73500
O256        O  0.76221976  0.19236067  0.73732997    -0.73300
C257        C  0.81699270  0.24746289  0.73821218     0.78500
C258        C  0.74595036  0.31087852  0.75194149     0.78900
C259        C  0.75556043  0.24782292  0.68427852     0.77900
C260        C  0.69072934  0.24170592  0.74827412     0.78300
C261        C  0.76171547  0.25340376  0.81195073     0.79400
C262        C  0.75041621  0.18320245  0.75380257     0.78500
N263        N  0.72010032  0.99760476  0.77178926    -0.02200
C264        C  0.73327970  0.97859855  0.77644385     0.00400
C265        C  0.75654207  0.98483702  0.77747034    -0.22400
C266        C  0.75778985  0.00825379  0.77308012    -0.22700
C267        C  0.73527098  0.01571455  0.76968331     0.00300
H268        H  0.77118508  0.97342133  0.78022457     0.14100
H269        H  0.77346952  0.01875665  0.77244111     0.14200
N270        N  0.49073674  0.76786180  0.76415050    -0.02200
C271        C  0.47115936  0.75484965  0.76135490     0.00400
C272        C  0.47617997  0.73141376  0.76242442    -0.22400
C273        C  0.49962758  0.72974704  0.76610487    -0.22700
C274        C  0.50809711  0.75223789  0.76713812     0.00300
H275        H  0.46386682  0.71710831  0.76183589     0.14100
H276        H  0.50942859  0.71384650  0.76806706     0.14200
N277        N  0.26294363  0.99507204  0.76677020    -0.02200
C278        C  0.24848596  0.97623102  0.76690716     0.00400
C279        C  0.22563464  0.98327321  0.76971343    -0.22400
C280        C  0.22594416  0.00698377  0.77167990    -0.22700
C281        C  0.24892636  0.01374194  0.76995128     0.00300
H282        H  0.21035886  0.97223112  0.77092041     0.14100
H283        H  0.21102909  0.01809143  0.77442928     0.14200
N284        N  0.46533980  0.97386178  0.76377990    -0.35300
N285        N  0.46734693  0.02486471  0.76346505    -0.55800
N286        N  0.51773505  0.02274193  0.76332564    -0.35300
N287        N  0.51533195  0.97168627  0.76754246    -0.55800
C288        C  0.44278995  0.97921658  0.76785782     0.28300
C289        C  0.46810491  0.95109448  0.76917648     0.28300
C290        C  0.51455348  0.04584995  0.76669750     0.28300
C291        C  0.53980943  0.01783981  0.76968436     0.28300
C292        C  0.44446696  0.02168156  0.75904667     0.36900
C293        C  0.47211824  0.04743006  0.75863576     0.36900
C294        C  0.51085222  0.94892563  0.76323199     0.36900
C295        C  0.53847333  0.97475826  0.76431682     0.36900
C296        C  0.43108882  0.95967351  0.77606040    -0.20600
C297        C  0.44707369  0.94195958  0.77697225    -0.20600
C298        C  0.53494439  0.05577704  0.77496221    -0.20600
C299        C  0.55084530  0.03811274  0.77691195    -0.20600
C300        C  0.43461580  0.04233344  0.75164972    -0.21600
C301        C  0.45214919  0.05863073  0.75131687    -0.21600
C302        C  0.53125919  0.93760085  0.75715786    -0.21600
C303        C  0.54875526  0.95389709  0.75808877    -0.21600
C304        C  0.43208762  0.00067848  0.76259503    -0.17000
C305        C  0.48876225  0.93811021  0.76582887    -0.17000
C306        C  0.55068515  0.99585315  0.76794689    -0.17000
C307        C  0.49395595  0.05833924  0.76193524    -0.17000
H308        H  0.41283801  0.95824744  0.78064506     0.15900
H309        H  0.44352648  0.92431069  0.78255894     0.15900
H310        H  0.53803698  0.07385721  0.77930204     0.15900
H311        H  0.56856197  0.04003388  0.78294381     0.15900
H312        H  0.41666267  0.04535405  0.74698419     0.14200
H313        H  0.45036818  0.07665931  0.74624286     0.14200
H314        H  0.53344497  0.91951616  0.75244933     0.14200
H315        H  0.56695709  0.95078794  0.75435330     0.14200
H316        H  0.47729598  0.98429936  0.75498854     0.27500
H317        H  0.50634486  0.01142364  0.75499116     0.27500
N318        N  0.50608552  0.22700751  0.74570218    -0.02200
C319        C  0.48770000  0.24126246  0.74950771     0.00400
C320        C  0.49383841  0.26417684  0.74545527    -0.22400
C321        C  0.51674998  0.26414309  0.73868161    -0.22700
C322        C  0.52382560  0.24123647  0.73906527     0.00300
H323        H  0.48265056  0.27922560  0.74663786     0.14100
H324        H  0.52726487  0.27924097  0.73439688     0.14200
Zn325      Zn  0.27332314  0.22244151  0.72127672     1.49700
Zn326      Zn  0.23579688  0.26401365  0.72373193     1.49400
Zn327      Zn  0.23592844  0.22527286  0.76296671     1.49100
Zn328      Zn  0.27836674  0.26103792  0.75958915     1.49500
O329        O  0.25575382  0.24316296  0.74174073    -1.82800
O330        O  0.26389833  0.22765785  0.68791458    -0.73400
O331        O  0.20128581  0.25578082  0.72791057    -0.73300
O332        O  0.24570253  0.19144658  0.76239664    -0.72800
O333        O  0.24184065  0.25944436  0.68902570    -0.73400
O334        O  0.26729542  0.18926252  0.73013745    -0.73000
O335        O  0.20179781  0.22677172  0.75343487    -0.73600
O336        O  0.27151034  0.25918119  0.79380636    -0.73000
O337        O  0.24208086  0.29772578  0.73330091    -0.73800
O338        O  0.23914831  0.23783967  0.79581466    -0.73200
O339        O  0.27583483  0.29500149  0.75207057    -0.73600
O340        O  0.31122547  0.24999944  0.75469202    -0.73500
O341        O  0.30847444  0.22561007  0.72484133    -0.73300
C342        C  0.25196188  0.24322200  0.67769684     0.78500
C343        C  0.19073364  0.23996154  0.73952518     0.78900
C344        C  0.25746109  0.17970623  0.74761249     0.77900
C345        C  0.25469990  0.25047505  0.80540570     0.78300
C346        C  0.25945434  0.30710382  0.74355719     0.79400
C347        C  0.32060305  0.23620798  0.74007541     0.78500
N348        N  0.24072417  0.73826832  0.00510927    -0.02200
C349        C  0.23275864  0.75159938  0.98733939     0.00400
C350        C  0.23444585  0.77493739  0.99287546    -0.22400
C351        C  0.24383891  0.77616919  0.01471952    -0.22700
C352        C  0.24738212  0.75353484  0.02193141     0.00300
H353        H  0.23008054  0.78955201  0.98187912     0.14100
H354        H  0.24724832  0.79192472  0.02450041     0.14200
N355        N  0.25089393  0.49274567  0.77150198    -0.02200
C356        C  0.25114579  0.51139613  0.75704236     0.00400
C357        C  0.25600113  0.50451819  0.73440833    -0.22400
C358        C  0.25876859  0.48087903  0.73487797    -0.22700
C359        C  0.25557761  0.47415822  0.75773942     0.00300
H360        H  0.25715591  0.51550095  0.71912654     0.14100
H361        H  0.26184417  0.46965771  0.72002504     0.14200
N362        N  0.23262403  0.27803025  0.98970860    -0.02200
C363        C  0.23046066  0.26492986  0.97007164     0.00400
C364        C  0.22495382  0.24218103  0.97545455    -0.22400
C365        C  0.22347625  0.24097957  0.99919631    -0.22700
C366        C  0.22805236  0.26307426  0.00758612     0.00300
H367        H  0.22185549  0.22808001  0.96331785     0.14100
H368        H  0.21932583  0.22560651  0.00931070     0.14200
N369        N  0.24145925  0.48291405  0.97412597    -0.35300
N370        N  0.24466836  0.48198218  0.02466217    -0.55800
N371        N  0.24456828  0.53287767  0.02588560    -0.35300
N372        N  0.23784272  0.53377217  0.97538133    -0.55800
C373        C  0.23754205  0.45998169  0.97818598     0.28300
C374        C  0.23449337  0.48742207  0.95210634     0.28300
C375        C  0.24204145  0.52797460  0.04887922     0.28300
C376        C  0.23866040  0.55546823  0.02277809     0.28300
C377        C  0.24912818  0.45935502  0.01988288     0.36900
C378        C  0.25088406  0.48554643  0.04711086     0.36900
C379        C  0.23999813  0.53051749  0.95205997     0.36900
C380        C  0.24131079  0.55678276  0.97935005     0.36900
C381        C  0.22801604  0.44982415  0.95845305    -0.20600
C382        C  0.22620489  0.46709569  0.94198013    -0.20600
C383        C  0.23456171  0.54776693  0.06052743    -0.20600
C384        C  0.23253562  0.56510572  0.04410288    -0.20600
C385        C  0.25838406  0.44857639  0.03929740    -0.21600
C386        C  0.25950358  0.46514068  0.05652138    -0.21600
C387        C  0.24468618  0.55156070  0.94119119    -0.21600
C388        C  0.24544242  0.56818229  0.95844047    -0.21600
C389        C  0.24324808  0.44785116  0.99887760    -0.17000
C390        C  0.23686328  0.50898338  0.94035802    -0.17000
C391        C  0.23964128  0.56786949  0.00140337    -0.17000
C392        C  0.24728922  0.50644211  0.05974210    -0.17000
H393        H  0.22301072  0.43180832  0.95605007     0.15900
H394        H  0.21959089  0.46491236  0.92447992     0.15900
H395        H  0.23101186  0.54961616  0.07897884     0.15900
H396        H  0.22717238  0.58281669  0.04750425     0.15900
H397        H  0.26362363  0.43059439  0.04093347     0.14200
H398        H  0.26580407  0.46241168  0.07404049     0.14200
H399        H  0.24725010  0.55464375  0.92274811     0.14200
H400        H  0.24871373  0.58656973  0.95588241     0.14200
H401        H  0.25070873  0.49427442  0.98476029     0.27500
H402        H  0.25213092  0.52212746  0.01343738     0.27500
N403        N  0.26124894  0.50211343  0.22953335    -0.02200
C404        C  0.26517552  0.51848922  0.24619255     0.00400
C405        C  0.26603941  0.50830798  0.26800879    -0.22400
C406        C  0.26219029  0.48497366  0.26482598    -0.22700
C407        C  0.25932154  0.48165264  0.24119309     0.00300
H408        H  0.26830705  0.51702456  0.28457936     0.14100
H409        H  0.26169839  0.47177540  0.27826759     0.14200
N410        N  0.50538148  0.77147053  0.26166136    -0.02200
C411        C  0.52237236  0.75542680  0.25845163     0.00400
C412        C  0.51301274  0.73319876  0.25982416    -0.22400
C413        C  0.48970279  0.73562364  0.26435470    -0.22700
C414        C  0.48549724  0.75920519  0.26541229     0.00300
H415        H  0.52225066  0.71688619  0.25856149     0.14100
H416        H  0.47711377  0.72169292  0.26642784     0.14200
N417        N  0.74174785  0.99850304  0.23072410    -0.02200
C418        C  0.75399999  0.97907346  0.22563059     0.00400
C419        C  0.77699185  0.98450775  0.22094645    -0.22400
C420        C  0.77908754  0.00814763  0.22340955    -0.22700
C421        C  0.75723710  0.01632055  0.22927013     0.00300
H422        H  0.79092102  0.97246773  0.21711286     0.14100
H423        H  0.79484732  0.01830636  0.22112272     0.14200
N424        N  0.28323845  0.00159085  0.24838084    -0.02200
C425        C  0.26830094  0.98411602  0.25412003     0.00400
C426        C  0.24565700  0.99204256  0.25458229    -0.22400
C427        C  0.24655323  0.01518115  0.24891198    -0.22700
C428        C  0.26973504  0.02058922  0.24532862     0.00300
H429        H  0.23011123  0.98194607  0.25824518     0.14100
H430        H  0.23192783  0.02691457  0.24787071     0.14200
N431        N  0.53835567  0.97516301  0.24478559    -0.35300
N432        N  0.48776301  0.97359291  0.24655671    -0.55800
N433        N  0.48668226  0.02432577  0.24659007    -0.35300
N434        N  0.53766943  0.02567289  0.24884858    -0.55800
C435        C  0.53473523  0.95228098  0.24924037     0.28300
C436        C  0.56105161  0.97972381  0.24906911     0.28300
C437        C  0.46390978  0.01942338  0.25061308     0.28300
C438        C  0.49018147  0.04699540  0.25211199     0.28300
C439        C  0.49205646  0.95088228  0.24227877     0.36900
C440        C  0.46482140  0.97674385  0.24271454     0.36900
C441        C  0.56072308  0.02281805  0.24473018     0.36900
C442        C  0.53344471  0.04873599  0.24693781     0.36900
C443        C  0.55535816  0.94224506  0.25647195    -0.20600
C444        C  0.57196843  0.95953020  0.25627693    -0.20600
C445        C  0.45275194  0.03932713  0.25841457    -0.20600
C446        C  0.46928174  0.05669103  0.25932812    -0.20600
C447        C  0.47178387  0.93956017  0.23567992    -0.21600
C448        C  0.45452489  0.95595882  0.23591941    -0.21600
C449        C  0.57119952  0.04418319  0.24051235    -0.21600
C450        C  0.55398075  0.06057387  0.24201428    -0.21600
C451        C  0.51369487  0.93992096  0.24569611    -0.17000
C452        C  0.57253496  0.00125794  0.24540388    -0.17000
C453        C  0.51149411  0.05944508  0.25014433    -0.17000
C454        C  0.45272940  0.99769841  0.24681420    -0.17000
H455        H  0.55822617  0.92427027  0.26120975     0.15900
H456        H  0.59006848  0.95746159  0.26092005     0.15900
H457        H  0.43458104  0.04118332  0.26307705     0.15900
H458        H  0.46623290  0.07443569  0.26483636     0.15900
H459        H  0.46962544  0.92135906  0.23128733     0.14200
H460        H  0.43642672  0.95288528  0.23173151     0.14200
H461        H  0.58932827  0.04769456  0.23666928     0.14200
H462        H  0.55632221  0.07908932  0.23944086     0.14200
H463        H  0.52683141  0.98632195  0.23662453     0.27500
H464        H  0.49862538  0.01347021  0.23850757     0.27500
N465        N  0.50348438  0.22904169  0.24732681    -0.02200
C466        C  0.52121449  0.24338513  0.25375531     0.00400
C467        C  0.51473166  0.26638604  0.25165675    -0.22400
C468        C  0.49232217  0.26636529  0.24373280    -0.22700
C469        C  0.48569371  0.24332530  0.24144406     0.00300
H470        H  0.52526386  0.28161310  0.25530774     0.14100
H471        H  0.48164140  0.28156442  0.24101062     0.14200
N472        N  0.76552206  0.26716666  0.49782707    -0.02200
C473        C  0.74850892  0.26940340  0.48164460     0.00400
C474        C  0.72687257  0.27013110  0.49225631    -0.22400
C475        C  0.73055916  0.26836920  0.51576219    -0.22700
C476        C  0.75428999  0.26660930  0.51870017     0.00300
H477        H  0.71017180  0.27175420  0.48380348     0.14100
H478        H  0.71740796  0.26887067  0.52933209     0.14200
N479        N  0.00367643  0.24429796  0.71482628    -0.02200
C480        C  0.02220910  0.23891224  0.72848089     0.00400
C481        C  0.01504663  0.23712995  0.75151942    -0.22400
C482        C  0.99157758  0.24139159  0.75207870    -0.22700
C483        C  0.98497668  0.24540544  0.72939349     0.00300
H484        H  0.02579145  0.23329989  0.76644659     0.14100
H485        H  0.98045358  0.24135260  0.76736611     0.14200
N486        N  0.00312564  0.24844097  0.25789155    -0.02200
C487        C  0.02189021  0.24271573  0.24462902     0.00400
C488        C  0.01622179  0.24301330  0.22123994    -0.22400
C489        C  0.99331246  0.24931656  0.21996622    -0.22700
C490        C  0.98567230  0.25246524  0.24260096     0.00300
H491        H  0.02774318  0.23981624  0.20660707     0.14100
H492        H  0.98320836  0.25110324  0.20421245     0.14200
N493        N  0.01966910  0.26265201  0.46052210    -0.35300
N494        N  0.02197129  0.26419304  0.51105375    -0.55800
N495        N  0.97114969  0.26545585  0.51297509    -0.35300
N496        N  0.96889667  0.26754630  0.46237198    -0.55800
C497        C  0.04282406  0.26593233  0.46369443     0.28300
C498        C  0.01496578  0.26794956  0.43804158     0.28300
C499        C  0.97647653  0.27010067  0.53549006     0.28300
C500        C  0.94851262  0.27106513  0.50989969     0.28300
C501        C  0.04429981  0.25843275  0.50633128     0.36900
C502        C  0.01861211  0.26021871  0.53404871     0.36900
C503        C  0.97176232  0.26348241  0.43929194     0.36900
C504        C  0.94598936  0.26428001  0.46709985     0.36900
C505        C  0.05291331  0.27339143  0.44298992    -0.20600
C506        C  0.03536586  0.27463435  0.42681365    -0.20600
C507        C  0.95702292  0.27881730  0.54683717    -0.20600
C508        C  0.93940791  0.27947936  0.53069447    -0.20600
C509        C  0.05516335  0.25082561  0.52642242    -0.21600
C510        C  0.03890178  0.25201366  0.54399588    -0.21600
C511        C  0.95056233  0.25795086  0.42925801    -0.21600
C512        C  0.93427298  0.25833079  0.44686266    -0.21600
C513        C  0.05528819  0.26111902  0.48437423    -0.17000
C514        C  0.99309076  0.26546548  0.42697681    -0.17000
C515        C  0.93546584  0.26730647  0.48931116    -0.17000
C516        C  0.99790966  0.26514788  0.54644870    -0.17000
H517        H  0.07108046  0.27739305  0.43981449     0.15900
H518        H  0.03743192  0.27973192  0.40876141     0.15900
H519        H  0.95558625  0.28391106  0.56495466     0.15900
H520        H  0.92181414  0.28531285  0.53397126     0.15900
H521        H  0.07295779  0.24508337  0.52827887     0.14200
H522        H  0.04171761  0.24740663  0.56204544     0.14200
H523        H  0.94719385  0.25384835  0.41116894     0.14200
H524        H  0.91593887  0.25450034  0.44490324     0.14200
H525        H  0.00826844  0.25464265  0.47215943     0.27500
H526        H  0.98146215  0.25630379  0.50124682     0.27500
N527        N  0.22447324  0.24569318  0.49034885    -0.02200
C528        C  0.23772492  0.23957000  0.47158524     0.00400
C529        C  0.25992703  0.23367708  0.47847753    -0.22400
C530        C  0.26048570  0.23591108  0.50215880    -0.22700
C531        C  0.23864267  0.24314808  0.50917097     0.00300
H532        H  0.27424741  0.22824071  0.46744963     0.14100
H533        H  0.27512029  0.23196488  0.51324658     0.14200
Zn534      Zn  0.27299387  0.23089829  0.25947422     1.49700
Zn535      Zn  0.23493229  0.23008947  0.21930394     1.49400
Zn536      Zn  0.23325493  0.26956362  0.25903159     1.49100
Zn537      Zn  0.27338120  0.27003804  0.22018473     1.49500
O538        O  0.25355217  0.25019934  0.23950142    -1.82800
O539        O  0.26965741  0.19719184  0.25178298    -0.73400
O540        O  0.20131114  0.23136448  0.22933807    -0.73300
O541        O  0.23867904  0.26384232  0.29339556    -0.72800
O542        O  0.24579662  0.19656145  0.22146329    -0.73400
O543        O  0.26421473  0.23490292  0.29304813    -0.73000
O544        O  0.19951663  0.26095952  0.25430033    -0.73600
O545        O  0.26802659  0.30411785  0.22700348    -0.73000
O546        O  0.23694965  0.24054484  0.18541908    -0.73800
O547        O  0.23784007  0.30364019  0.25147122    -0.73200
O548        O  0.26618035  0.26599195  0.18604233    -0.73600
O549        O  0.30700926  0.26226158  0.22501817    -0.73500
O550        O  0.30716733  0.23715564  0.25447197    -0.73300
C551        C  0.25925932  0.18622860  0.23564580     0.78500
C552        C  0.18973804  0.24473352  0.24275351     0.78900
C553        C  0.25056925  0.24851840  0.30396547     0.77900
C554        C  0.25249275  0.31467277  0.23882764     0.78300
C555        C  0.25077950  0.25454706  0.17496568     0.79400
C556        C  0.31785122  0.24922765  0.23917096     0.78500
C557        C  0.22558945  0.25084443  0.40706268     0.17300
C558        C  0.22285661  0.26164330  0.38528591    -0.31800
C559        C  0.23386042  0.25134714  0.36591552     0.21700
C560        C  0.24655022  0.23101526  0.36811430     0.03900
C561        C  0.24861711  0.21989019  0.38960116    -0.21500
C562        C  0.23806617  0.23036994  0.40892142     0.13000
S563        S  0.21700458  0.26224166  0.43336194    -0.05200
C564        C  0.23090064  0.23938988  0.44678386    -0.08600
C565        C  0.24068670  0.22351960  0.43147005    -0.25200
S566        S  0.25961687  0.22174972  0.34312855    -0.02400
C567        C  0.24779489  0.24539558  0.32926109    -0.15900
C568        C  0.23438254  0.25965941  0.34348238    -0.13900
H569        H  0.21349449  0.27785522  0.38368645     0.21500
H570        H  0.25888732  0.20424883  0.39137348     0.17500
H571        H  0.25100166  0.20870188  0.43667242     0.20100
H572        H  0.22552383  0.27519241  0.33772918     0.13400
C573        C  0.12023609  0.24622660  0.47624358     0.17300
C574        C  0.14157132  0.23577945  0.47073178    -0.31800
C575        C  0.16180618  0.24542990  0.48041392     0.21700
C576        C  0.16094545  0.26490317  0.49466309     0.03900
C577        C  0.13958417  0.27552109  0.50003481    -0.18300
C578        C  0.11925965  0.26560383  0.49063744     0.13000
S579        S  0.09372205  0.23640529  0.46700937    -0.05200
C580        C  0.08103134  0.25849923  0.48281538    -0.08600
C581        C  0.09675034  0.27274919  0.49448160    -0.25200
S582        S  0.18752003  0.27360695  0.50492905    -0.02400
C583        C  0.19982403  0.25046734  0.49028144    -0.15900
C584        C  0.18402038  0.23713295  0.47778089    -0.13900
H585        H  0.14232456  0.22050253  0.45969726     0.21500
H586        H  0.13880301  0.29058693  0.51135687     0.17500
H587        H  0.09189010  0.28733030  0.50540671     0.20100
H588        H  0.18853144  0.22194470  0.46757257     0.13400
C589        C  0.12501153  0.22863849  0.24169823     0.17300
C590        C  0.10316974  0.21933108  0.23637504    -0.31800
C591        C  0.08367343  0.22979075  0.24655479     0.21700
C592        C  0.08571161  0.24840517  0.26180935     0.03900
C593        C  0.10769012  0.25749063  0.26750033    -0.21500
C594        C  0.12724467  0.24732602  0.25685407     0.13000
S595        S  0.15047234  0.21940213  0.22961959    -0.05200
C596        C  0.16445286  0.24108231  0.24488877    -0.08600
C597        C  0.14995711  0.25453301  0.25883884    -0.25200
S598        S  0.05964377  0.26009685  0.27021918    -0.02400
C599        C  0.04604936  0.23996171  0.25257236    -0.15900
C600        C  0.06104428  0.22477506  0.24139369    -0.13900
H601        H  0.10138314  0.20514224  0.22406322     0.21500
H602        H  0.10940561  0.27241297  0.27891153     0.17500
H603        H  0.15565960  0.26901827  0.26950076     0.20100
H604        H  0.05571735  0.21186055  0.22870163     0.13400
C605        C  0.00384955  0.24227049  0.32396298     0.17300
C606        C  0.00718713  0.23514338  0.34705927    -0.31800
C607        C  0.99950094  0.24997577  0.36490418     0.21700
C608        C  0.98871536  0.27093251  0.36003460     0.03900
C609        C  0.98513858  0.27797659  0.33687719    -0.21500
C610        C  0.99300312  0.26318087  0.31898575     0.13000
S611        S  0.01279086  0.22704442  0.29997265    -0.05200
C612        C  0.00181303  0.24904076  0.28297034    -0.08600
C613        C  0.99162057  0.26709690  0.29539051    -0.25200
S614        S  0.98107306  0.28658154  0.38429532    -0.02400
C615        C  0.99263042  0.26465913  0.40107383    -0.15900
C616        C  0.00180067  0.24630140  0.38839877    -0.13900
H617        H  0.01570855  0.21885813  0.35095911     0.21500
H618        H  0.97683636  0.29437576  0.33297998     0.17500
H619        H  0.98400257  0.28238225  0.28757073     0.20100
H620        H  0.00982057  0.23112705  0.39604055     0.13400
C621        C  0.00670620  0.27031743  0.61281706     0.17300
C622        C  0.01319086  0.27654497  0.63558596    -0.31800
C623        C  0.00704535  0.26127222  0.65376475     0.21700
C624        C  0.99506418  0.24070976  0.64939701     0.03900
C625        C  0.98853062  0.23456894  0.62671571    -0.21500
C626        C  0.99455447  0.24983169  0.60860877     0.13000
S627        S  0.01286449  0.28609558  0.58823995    -0.05200
C628        C  0.99878119  0.26489203  0.57228952    -0.08600
C629        C  0.98985488  0.24669494  0.58540962    -0.25200
S630        S  0.98904253  0.22450434  0.67361285    -0.02400
C631        C  0.00288967  0.24551343  0.68984811    -0.15900
C632        C  0.01146111  0.26422759  0.67712342    -0.13900
H633        H  0.02263461  0.29253887  0.63896860     0.21500
H634        H  0.97912803  0.21855216  0.62332631     0.17500
H635        H  0.98087748  0.23172355  0.57823738     0.20100
H636        H  0.02007289  0.27925430  0.68459778     0.13400
C637        C  0.82982525  0.27687104  0.48373641     0.17300
C638        C  0.85155263  0.28485849  0.47563691    -0.31800
C639        C  0.87158456  0.27437737  0.48472724     0.21700
C640        C  0.87001626  0.25666694  0.50106542     0.03900
C641        C  0.84832816  0.24867096  0.50912295    -0.21500
C642        C  0.82834097  0.25919412  0.50011604     0.13000
S643        S  0.80346959  0.28755258  0.47526555    -0.05200
C644        C  0.79034636  0.26800260  0.49405967    -0.08600
C645        C  0.80575993  0.25399614  0.50605754    -0.25200
S646        S  0.89622935  0.24615782  0.50995656    -0.02400
C647        C  0.90961868  0.26584372  0.49151473    -0.15900
C648        C  0.89429266  0.27978025  0.47921319    -0.13900
H649        H  0.85279008  0.29870522  0.46289999     0.21500
H650        H  0.84708851  0.23490538  0.52195208     0.17500
H651        H  0.80075356  0.24065208  0.51839794     0.20100
H652        H  0.89952998  0.29313124  0.46692664     0.13400
C653        C  0.42107859  0.22787585  0.24428408     0.17300
C654        C  0.39870261  0.22202058  0.25237129    -0.31800
C655        C  0.37984867  0.23433895  0.24309582     0.21700
C656        C  0.38313598  0.25126730  0.22616161     0.03900
C657        C  0.40535114  0.25672142  0.21775812    -0.21500
C658        C  0.42415773  0.24482466  0.22735346     0.13000
S659        S  0.44648761  0.21754663  0.25555776    -0.05200
C660        C  0.46126296  0.23655433  0.23746787    -0.08600
C661        C  0.44707855  0.24963666  0.22319384    -0.25200
S662        S  0.35842168  0.26489798  0.21760279    -0.02400
C663        C  0.34329740  0.24779191  0.23711765    -0.15900
C664        C  0.35688626  0.23221828  0.24948176    -0.13900
H665        H  0.39619187  0.20916053  0.26594701     0.21500
H666        H  0.40794606  0.27030708  0.20491968     0.17500
H667        H  0.45319393  0.26332043  0.21168051     0.20100
H668        H  0.35033702  0.22003924  0.26236496     0.13400
C669        C  0.49894276  0.16366264  0.23677679     0.17300
C670        C  0.49415637  0.14123522  0.22834252    -0.31800
C671        C  0.50256965  0.12229108  0.24112744     0.21700
C672        C  0.51521783  0.12551674  0.26140738     0.03900
C673        C  0.51991023  0.14794832  0.26989531    -0.21500
C674        C  0.51146074  0.16689876  0.25713504     0.13000
S675        S  0.49039348  0.18886357  0.22371951    -0.05200
C676        C  0.50356029  0.20397468  0.24610716    -0.08600
C677        C  0.51415116  0.19001137  0.26260834    -0.25200
S678        S  0.52419494  0.10029847  0.27419425    -0.02400
C679        C  0.51084528  0.08524365  0.25192205    -0.15900
C680        C  0.49991061  0.09918859  0.23564904    -0.13900
H681        H  0.48435637  0.13866682  0.21247166     0.21500
H682        H  0.52977042  0.15051998  0.28572638     0.17500
H683        H  0.52308079  0.19639828  0.27791149     0.20100
H684        H  0.49077189  0.09271506  0.22049272     0.13400
C685        C  0.28605731  0.08478168  0.24534631     0.17300
C686        C  0.29014517  0.10763684  0.25301007    -0.31800
C687        C  0.27855190  0.12563831  0.24133673     0.21700
C688        C  0.26443572  0.12118499  0.22230224     0.03900
C689        C  0.26111354  0.09854349  0.21414274    -0.21500
C690        C  0.27177766  0.08053889  0.22637675     0.13000
S691        S  0.29436896  0.06018071  0.25981770    -0.05200
C692        C  0.27774214  0.04439172  0.24045920    -0.08600
C693        C  0.26721243  0.05745289  0.22337984    -0.25200
S694        S  0.25038249  0.14488385  0.21159470    -0.02400
C695        C  0.26336693  0.16111176  0.23312777    -0.15900
C696        C  0.27809638  0.14864708  0.24758209    -0.13900
H697        H  0.30056772  0.11109077  0.26830920     0.21500
H698        H  0.24942041  0.09496583  0.19982583     0.17500
H699        H  0.25503833  0.05055700  0.21075096     0.20100
H700        H  0.28755559  0.15593440  0.26216821     0.13400
C701        C  0.38705780  0.98984506  0.25825724     0.17300
C702        C  0.36492558  0.98391590  0.26692849    -0.31800
C703        C  0.34550229  0.99243277  0.25499413     0.21700
C704        C  0.34805135  0.00629279  0.23534872     0.03900
C705        C  0.37014474  0.01219447  0.22668072    -0.21500
C706        C  0.38953232  0.00365418  0.23856898     0.13000
S707        S  0.41278363  0.98135417  0.27023999    -0.05200
C708        C  0.42696765  0.99654263  0.24845289    -0.08600
C709        C  0.41241594  0.00757187  0.23285540    -0.25200
S710        S  0.32249651  0.01541753  0.22364794    -0.02400
C711        C  0.30811900  0.00055722  0.24554804    -0.15900
C712        C  0.32254586  0.98893089  0.26087341    -0.13900
H713        H  0.36293834  0.97321354  0.28234130     0.21500
H714        H  0.37213320  0.02307871  0.21139426     0.17500
H715        H  0.41832370  0.01786773  0.21815126     0.20100
H716        H  0.31659664  0.97911743  0.27587924     0.13400
C717        C  0.67849402  0.00767159  0.24876813     0.17300
C718        C  0.65735095  0.01475716  0.25886652    -0.31800
C719        C  0.63663157  0.00678333  0.24860283     0.21700
C720        C  0.63700516  0.99238675  0.22918507     0.03900
C721        C  0.65807701  0.98519429  0.21921576    -0.21500
C722        C  0.67872618  0.99317140  0.22942231     0.13000
S723        S  0.70556741  0.01585402  0.25812288    -0.05200
C724        C  0.71716511  0.99977112  0.23551018    -0.08600
C725        C  0.70085003  0.98842939  0.22186754    -0.25200
S726        S  0.61019124  0.98452425  0.21924519    -0.02400
C727        C  0.59816010  0.00064350  0.24156703    -0.15900
C728        C  0.61431327  0.01157922  0.25584413    -0.13900
H729        H  0.65706301  0.02607284  0.27396543     0.21500
H730        H  0.65836296  0.97393991  0.20406568     0.17500
H731        H  0.70499520  0.97775400  0.20686278     0.20100
H732        H  0.60992861  0.02215743  0.27085023     0.13400
C733        C  0.50375341  0.83713184  0.26825389     0.17300
C734        C  0.49881402  0.86003093  0.27489155    -0.31800
C735        C  0.50688232  0.87797633  0.26041536     0.21700
C736        C  0.51955954  0.87339537  0.24029314     0.03900
C737        C  0.52436113  0.85041862  0.23352598    -0.21500
C738        C  0.51607882  0.83240892  0.24793466     0.13000
S739        S  0.49493800  0.81309553  0.28332829    -0.05200
C740        C  0.50755450  0.79639562  0.26184034    -0.08600
C741        C  0.51834487  0.80892029  0.24413042    -0.25200
S742        S  0.52814447  0.89774486  0.22538291    -0.02400
C743        C  0.51424058  0.91413468  0.24636128    -0.15900
C744        C  0.50363804  0.90131526  0.26390379    -0.13900
H745        H  0.48897049  0.86369554  0.29061154     0.21500
H746        H  0.53401948  0.84674816  0.21769568     0.17500
H747        H  0.52678606  0.80124274  0.22908049     0.20100
H748        H  0.49418562  0.90874947  0.27847462     0.13400
C749        C  0.23935530  0.38001610  0.23794979     0.17300
C750        C  0.22986684  0.40215840  0.24112406    -0.31800
C751        C  0.24304170  0.42129074  0.23354060     0.21700
C752        C  0.26445901  0.41857430  0.22263695     0.03900
C753        C  0.27365203  0.39630854  0.21880316    -0.21500
C754        C  0.26072316  0.37714560  0.22699395     0.13000
S755        S  0.22700420  0.35490052  0.24799301    -0.05200
C756        C  0.25080261  0.34019341  0.23728634    -0.08600
C757        C  0.26733912  0.35423716  0.22641291    -0.25200
S758        S  0.27910276  0.44412433  0.21778455    -0.02400
C759        C  0.25633993  0.45838678  0.23104686    -0.15900
C760        C  0.23822142  0.44409052  0.23816726    -0.13900
H761        H  0.21346263  0.40444505  0.25020595     0.21500
H762        H  0.29065175  0.39408548  0.21089825     0.17500
H763        H  0.28342470  0.34805592  0.21874418     0.20100
H764        H  0.22334638  0.44990208  0.24824618     0.13400
C765        C  0.24154639  0.49723573  0.12622586     0.17300
C766        C  0.23523673  0.48991414  0.14870053    -0.31800
C767        C  0.24771424  0.49908757  0.16755772     0.21700
C768        C  0.26567512  0.51497489  0.16426317     0.03900
C769        C  0.27188551  0.52248324  0.14173092    -0.21500
C770        C  0.25943536  0.51318261  0.12280328     0.13000
S771        S  0.22875256  0.48766143  0.10117083    -0.05200
C772        C  0.24767780  0.50527468  0.08571758    -0.08600
C773        C  0.26300930  0.51792370  0.09953451    -0.25200
S774        S  0.27905456  0.52343429  0.18951325    -0.02400
C775        C  0.26010956  0.50543013  0.20461505    -0.15900
C776        C  0.24440023  0.49361099  0.19061036    -0.13900
H777        H  0.22132809  0.47739368  0.15136270     0.21500
H778        H  0.28594575  0.53482905  0.13905688     0.17500
H779        H  0.27613965  0.52978160  0.09285496     0.20100
H780        H  0.23125253  0.48160023  0.19694604     0.13400
C781        C  0.22182778  0.26155111  0.07351323     0.17300
C782        C  0.21572645  0.25445965  0.09609304    -0.31800
C783        C  0.23201509  0.25801827  0.11381037     0.21700
C784        C  0.25332715  0.26857110  0.10932850     0.03900
C785        C  0.25945530  0.27570765  0.08665651    -0.21500
C786        C  0.24323073  0.27184524  0.06880641     0.13000
S787        S  0.20524369  0.25655852  0.04957758    -0.05200
C788        C  0.22739080  0.26808590  0.03276362    -0.08600
C789        C  0.24648859  0.27583609  0.04532428    -0.25200
S790        S  0.27052215  0.27146415  0.13337561    -0.02400
C791        C  0.24887959  0.25803821  0.14954738    -0.15900
C792        C  0.22942451  0.25176743  0.13676958    -0.13900
H793        H  0.19918631  0.24600333  0.09959002     0.21500
H794        H  0.27627677  0.28351731  0.08303214     0.17500
H795        H  0.26253333  0.28218885  0.03758467     0.20100
H796        H  0.21405429  0.24340042  0.14395572     0.13400
C797        C  0.23094735  0.38209517  0.00631594     0.17300
C798        C  0.22225349  0.36018768  0.01294038    -0.31800
C799        C  0.23140893  0.34049265  0.00177418     0.21700
C800        C  0.24854853  0.34255333  0.98478415     0.03900
C801        C  0.25734129  0.36447722  0.97820554    -0.21500
C802        C  0.24809130  0.38420022  0.98932654     0.13000
S803        S  0.22172085  0.40798000  0.01758376    -0.05200
C804        C  0.24114492  0.42196062  0.99928667    -0.08600
C805        C  0.25402497  0.40708398  0.98517207    -0.25200
S806        S  0.25687730  0.31664451  0.97286803    -0.02400
C807        C  0.23695709  0.30280665  0.99081467    -0.15900
C808        C  0.22475789  0.31773286  0.00541501    -0.13900
H809        H  0.20876533  0.35858608  0.02610419     0.21500
H810        H  0.27063237  0.36609324  0.96483996     0.17500
H811        H  0.26695971  0.41274579  0.97257273     0.20100
H812        H  0.21126072  0.31232470  0.01751003     0.13400
C813        C  0.25536601  0.49070468  0.83748424     0.17300
C814        C  0.26298394  0.48833003  0.86049745    -0.31800
C815        C  0.24922867  0.49796464  0.87825062     0.21700
C816        C  0.22854037  0.50924770  0.87344303     0.03900
C817        C  0.22088610  0.51169314  0.85030560    -0.21500
C818        C  0.23490630  0.50233195  0.83243334     0.13000
S819        S  0.27011567  0.48064907  0.81365584    -0.05200
C820        C  0.24889220  0.49268663  0.79651957    -0.08600
C821        C  0.23110480  0.50361188  0.80878143    -0.25200
S822        S  0.21432456  0.51935888  0.89777861    -0.02400
C823        C  0.23671868  0.50849560  0.91440657    -0.15900
C824        C  0.25399384  0.49751571  0.90162456    -0.13900
H825        H  0.27910083  0.47950500  0.86439222     0.21500
H826        H  0.20485997  0.52066938  0.84639918     0.17500
H827        H  0.21651144  0.51230903  0.80080531     0.20100
H828        H  0.26915524  0.48939510  0.90915817     0.13400
C829        C  0.22695041  0.63386759  0.99880883     0.17300
C830        C  0.21728784  0.65599940  0.99537713    -0.31800
C831        C  0.23108700  0.67555144  0.00061739     0.21700
C832        C  0.25353170  0.67319453  0.00902650     0.03900
C833        C  0.26324713  0.65103803  0.01236682    -0.21500
C834        C  0.24943454  0.63145604  0.00708603     0.13000
S835        S  0.21306095  0.60805450  0.99322504    -0.05200
C836        C  0.23779180  0.59376050  0.00201073    -0.08600
C837        C  0.25573272  0.60843711  0.00904553    -0.25200
S838        S  0.26727412  0.69909764  0.01470676    -0.02400
C839        C  0.24253081  0.71322735  0.00560468    -0.15900
C840        C  0.22473743  0.69848790  0.99844821    -0.13900
H841        H  0.19975049  0.65789636  0.98887240     0.21500
H842        H  0.28079961  0.64914814  0.01883220     0.17500
H843        H  0.27255246  0.60254300  0.01497406     0.20100
H844        H  0.20798315  0.70427714  0.99224484     0.13400
C845        C  0.12532316  0.22375715  0.73731456     0.17300
C846        C  0.10298940  0.21453375  0.74128867    -0.31800
C847        C  0.08424751  0.22467867  0.72949203     0.21700
C848        C  0.08755850  0.24275051  0.71386278     0.03900
C849        C  0.11004240  0.25157912  0.70939472    -0.21500
C850        C  0.12876416  0.24191113  0.72177162     0.13000
S851        S  0.14996703  0.21518470  0.75146586    -0.05200
C852        C  0.16526843  0.23640724  0.73650480    -0.08600
C853        C  0.15165654  0.24920579  0.72119093    -0.25200
S854        S  0.06214378  0.25450290  0.70372078    -0.02400
C855        C  0.04688007  0.23537556  0.72131347    -0.15900
C856        C  0.06111463  0.22017574  0.73349437    -0.13900
H857        H  0.10018925  0.20078595  0.75390849     0.21500
H858        H  0.11268044  0.26612545  0.69768328     0.17500
H859        H  0.15812034  0.26326223  0.71035602     0.20100
H860        H  0.05486075  0.20771501  0.74625491     0.13400
C861        C  0.24611955  0.22952112  0.61251769     0.17300
C862        C  0.24605150  0.21906272  0.59048422    -0.31800
C863        C  0.23838398  0.23239345  0.57162954     0.21700
C864        C  0.23116291  0.25517785  0.57444167     0.03900
C865        C  0.23067424  0.26550075  0.59665730    -0.21500
C866        C  0.23835612  0.25212618  0.61560647     0.13000
S867        S  0.25585273  0.21650496  0.63727015    -0.05200
C868        C  0.24912893  0.24161687  0.65221347    -0.08600
C869        C  0.23983962  0.25912401  0.63847655    -0.25200
S870        S  0.22547207  0.26916200  0.54876102    -0.02400
C871        C  0.23228312  0.24382432  0.53416276    -0.15900
C872        C  0.23877945  0.22576809  0.54874735    -0.13900
H873        H  0.25229486  0.20147578  0.58803908     0.21500
H874        H  0.22523026  0.28336416  0.59896741     0.17500
H875        H  0.23456343  0.27604441  0.64485116     0.20100
H876        H  0.24524546  0.20912932  0.54271069     0.13400
C877        C  0.24188767  0.40996039  0.75932669     0.17300
C878        C  0.23211401  0.38821303  0.75396001    -0.31800
C879        C  0.24722807  0.36921008  0.75210189     0.21700
C880        C  0.27091971  0.37167306  0.75595806     0.03900
C881        C  0.28067703  0.39339118  0.76130613    -0.21500
C882        C  0.26565089  0.41244575  0.76270428     0.13000
S883        S  0.22695831  0.43552317  0.75978495    -0.05200
C884        C  0.25303983  0.44966665  0.76417484    -0.08600
C885        C  0.27214010  0.43522347  0.76548453    -0.25200
S886        S  0.28627928  0.34651517  0.75339116    -0.02400
C887        C  0.26059937  0.33250843  0.74661130    -0.15900
C888        C  0.24120882  0.34676489  0.74649083    -0.13900
H889        H  0.21365043  0.38631269  0.75074517     0.21500
H890        H  0.29924691  0.39543610  0.76376392     0.17500
H891        H  0.29000511  0.44124808  0.76638019     0.20100
H892        H  0.22360380  0.34090211  0.74312453     0.13400
C893        C  0.22493615  0.26942808  0.90490230     0.17300
C894        C  0.21796950  0.26391902  0.88222514    -0.31800
C895        C  0.23533311  0.26214381  0.86512454     0.21700
C896        C  0.25853570  0.26652135  0.87011575     0.03900
C897        C  0.26551327  0.27207656  0.89282495    -0.21500
C898        C  0.24820606  0.27306199  0.91012213     0.13000
S899        S  0.20692618  0.26896561  0.92854607    -0.05200
C900        C  0.23104072  0.27293699  0.94581092    -0.08600
C901        C  0.25180180  0.27506774  0.93361648    -0.25200
S902        S  0.27686158  0.26359566  0.84678881    -0.02400
C903        C  0.25303452  0.25570243  0.83039649    -0.15900
C904        C  0.23210852  0.25566230  0.84242758    -0.13900
H905        H  0.19991918  0.26019506  0.87828825     0.21500
H906        H  0.28370242  0.27465527  0.89698972     0.17500
H907        H  0.26882287  0.27555469  0.94161194     0.20100
H908        H  0.21538463  0.25141353  0.83487475     0.13400
C909        C  0.42328857  0.23698350  0.76341782     0.17300
C910        C  0.40075349  0.24313377  0.77018770    -0.31800
C911        C  0.38234123  0.23545552  0.75626432     0.21700
C912        C  0.38599842  0.22152095  0.73686486     0.03900
C913        C  0.40860989  0.21474559  0.73043501    -0.21500
C914        C  0.42717675  0.22310052  0.74399149     0.13000
S915        S  0.44780198  0.24812487  0.77573610    -0.05200
C916        C  0.46357580  0.23424900  0.75438564    -0.08600
C917        C  0.45046247  0.22116094  0.73891533    -0.25200
S918        S  0.36118085  0.21534477  0.72159788    -0.02400
C919        C  0.34593756  0.23217456  0.74135452    -0.15900
C920        C  0.35951105  0.24151303  0.75895918    -0.13900
H921        H  0.39779115  0.25454877  0.78492916     0.21500
H922        H  0.41167713  0.20445114  0.71491077     0.17500
H923        H  0.45741849  0.21258756  0.72358805     0.20100
H924        H  0.35306839  0.25255123  0.77285458     0.13400
C925        C  0.49094663  0.12510586  0.76739358     0.17300
C926        C  0.48590723  0.14817260  0.77351588    -0.31800
C927        C  0.49643271  0.16594672  0.76036788     0.21700
C928        C  0.51140759  0.16098760  0.74201061     0.03900
C929        C  0.51639003  0.13792214  0.73583295    -0.21500
C930        C  0.50576458  0.12014207  0.74889729     0.13000
S931        S  0.47987183  0.10111142  0.78114022    -0.05200
C932        C  0.49506967  0.08417959  0.76153097    -0.08600
C933        C  0.50821592  0.09665028  0.74544996    -0.25200
S934        S  0.52237952  0.18497662  0.72820524    -0.02400
C935        C  0.50645663  0.20195082  0.74722759    -0.15900
C936        C  0.49354346  0.18942058  0.76348735    -0.13900
H937        H  0.47422383  0.15209231  0.78784907     0.21500
H938        H  0.52797307  0.13400916  0.72141708     0.17500
H939        H  0.51882069  0.08889090  0.73188467     0.20100
H940        H  0.48269159  0.19702649  0.77692496     0.13400
C941        C  0.25461334  0.07901539  0.77829289     0.17300
C942        C  0.24922689  0.10206217  0.78382089    -0.31800
C943        C  0.25645101  0.11933281  0.76821072     0.21700
C944        C  0.26913601  0.11401269  0.74828630     0.03900
C945        C  0.27507148  0.09092935  0.74302342    -0.21500
C946        C  0.26724166  0.07351935  0.75835776     0.13000
S947        S  0.24403707  0.05565792  0.79313958    -0.05200
C948        C  0.25625042  0.03817934  0.77209297    -0.08600
C949        C  0.26861300  0.04991291  0.75490382    -0.25200
S950        S  0.27518787  0.13746586  0.73103728    -0.02400
C951        C  0.26019801  0.15448685  0.75078133    -0.15900
C952        C  0.25131042  0.14250180  0.76977552    -0.13900
H953        H  0.23881849  0.10623776  0.79904134     0.21500
H954        H  0.28442191  0.08664957  0.72716162     0.17500
H955        H  0.27626128  0.04176185  0.73967388     0.20100
H956        H  0.24136516  0.15026371  0.78383668     0.13400
C957        C  0.32756025  0.00444009  0.77685973     0.17300
C958        C  0.34945893  0.01105947  0.78529280    -0.31800
C959        C  0.36897084  0.00571764  0.77158951     0.21700
C960        C  0.36676760  0.99459298  0.75022813     0.03900
C961        C  0.34480397  0.98834760  0.74158940    -0.21500
C962        C  0.32528402  0.99333869  0.75549764     0.13000
S963        S  0.30191438  0.00896383  0.79118083    -0.05200
C964        C  0.28790859  0.99560193  0.76825695    -0.08600
C965        C  0.30246449  0.98830476  0.75038434    -0.25200
S966        S  0.39263665  0.98852228  0.73682458    -0.02400
C967        C  0.40646455  0.00089123  0.76034349    -0.15900
C968        C  0.39177402  0.00956653  0.77741842    -0.13900
H969        H  0.35123716  0.01961900  0.80201832     0.21500
H970        H  0.34305160  0.97954385  0.72499071     0.17500
H971        H  0.29663653  0.98046809  0.73427416     0.20100
H972        H  0.39752756  0.01751481  0.79352467     0.13400
C973        C  0.50057928  0.83290943  0.77410606     0.17300
C974        C  0.50760811  0.85497983  0.78194094    -0.31800
C975        C  0.49660831  0.87447837  0.77234251     0.21700
C976        C  0.47959460  0.87213233  0.75546136     0.03900
C977        C  0.47269744  0.85006596  0.74748994    -0.21500
C978        C  0.48351180  0.83055777  0.75727259     0.13000
S979        S  0.51118826  0.80711401  0.78416409    -0.05200
C980        C  0.49240209  0.79291619  0.76549025    -0.08600
C981        C  0.47881296  0.80767085  0.75218332    -0.25200
S982        S  0.46854828  0.89793189  0.74585970    -0.02400
C983        C  0.48707333  0.91216668  0.76476762    -0.15900
C984        C  0.50082693  0.89735467  0.77789704    -0.13900
H985        H  0.52091546  0.85686264  0.79510679     0.21500
H986        H  0.45934882  0.84817733  0.73436695     0.17500
H987        H  0.46624709  0.80200434  0.73938437     0.20100
H988        H  0.51347277  0.90308413  0.79062510     0.13400
C989        C  0.61578560  0.98908449  0.78154447     0.17300
C990        C  0.63755502  0.98364786  0.79096438    -0.31800
C991        C  0.65744022  0.99158539  0.77901712     0.21700
C992        C  0.65573634  0.00450223  0.75868259     0.03900
C993        C  0.63398278  0.00995962  0.74930076    -0.21500
C994        C  0.61412351  0.00193058  0.76116752     0.13000
S995        S  0.58958680  0.98087881  0.79322152    -0.05200
C996        C  0.57632903  0.99485605  0.77035061    -0.08600
C997        C  0.59149639  0.00533731  0.75467868    -0.25200
S998        S  0.68186296  0.01266715  0.74685169    -0.02400
C999        C  0.69522419  0.99845264  0.76949172    -0.15900
C1000       C  0.68012976  0.98797907  0.78528073    -0.13900
H1001       H  0.63893511  0.97360482  0.80685129     0.21500
H1002       H  0.63259673  0.01998572  0.73340408     0.17500
H1003       H  0.58617837  0.01487817  0.73935609     0.20100
H1004       H  0.68551447  0.97843592  0.80057188     0.13400
C1005       C  0.74798821  0.11681364  0.74626752     0.17300
C1006       C  0.75121794  0.09376753  0.73913150    -0.31800
C1007       C  0.73938042  0.07629886  0.75148557     0.21700
C1008       C  0.72451675  0.08143221  0.76987325     0.03900
C1009       C  0.72092649  0.10464401  0.77676851    -0.21500
C1010       C  0.73323573  0.12216477  0.76469352     0.13000
S1011       S  0.76185608  0.14021537  0.73420562    -0.05200
C1012       C  0.74779215  0.15763022  0.75421881    -0.08600
C1013       C  0.73304531  0.14565059  0.76935783    -0.25200
S1014       S  0.71372948  0.05731580  0.78396337    -0.02400
C1015       C  0.72976262  0.04033985  0.76503551    -0.15900
C1016       C  0.74230948  0.05288116  0.74859205    -0.13900
H1017       H  0.76310530  0.08955740  0.72504898     0.21500
H1018       H  0.70973093  0.10879523  0.79141756     0.17500
H1019       H  0.72265507  0.15369345  0.78291897     0.20100
H1020       H  0.75432241  0.04523210  0.73618484     0.13400
C1021       C  0.76722305  0.24253835  0.61859924     0.17300
C1022       C  0.77013418  0.23470360  0.59563935    -0.31800
C1023       C  0.76943546  0.25133491  0.57780875     0.21700
C1024       C  0.76698247  0.27484196  0.58267050     0.03900
C1025       C  0.76445939  0.28271518  0.60567159    -0.21500
C1026       C  0.76404658  0.26596508  0.62341755     0.13000
S1027       S  0.76549187  0.22489618  0.64243587    -0.05200
C1028       C  0.75944617  0.24921403  0.65895153    -0.08600
C1029       C  0.75944505  0.26990365  0.64656863    -0.25200
S1030       S  0.76363869  0.29188143  0.55862164    -0.02400
C1031       C  0.76489000  0.26704780  0.54189106    -0.15900
C1032       C  0.76826808  0.24678029  0.55440132    -0.13900
H1033       H  0.77160558  0.21632281  0.59176153     0.21500
H1034       H  0.76154231  0.30093711  0.60944337     0.17500
H1035       H  0.75617170  0.28687417  0.65408507     0.20100
H1036       H  0.76750544  0.22945682  0.54698120     0.13400
C1037       C  0.62583268  0.22711425  0.75369379     0.17300
C1038       C  0.60343319  0.22115111  0.76147130    -0.31800
C1039       C  0.58473438  0.22667334  0.74694570     0.21700
C1040       C  0.58826375  0.23707748  0.72538224     0.03900
C1041       C  0.61066437  0.24256028  0.71741567    -0.21500
C1042       C  0.62926148  0.23769616  0.73221869     0.13000
S1043       S  0.65059114  0.22378502  0.76953956    -0.05200
C1044       C  0.66559543  0.23723505  0.74716569    -0.08600
C1045       C  0.65205403  0.24351588  0.72834789    -0.25200
S1046       S  0.56343803  0.24503432  0.71156723    -0.02400
C1047       C  0.54813144  0.23461152  0.73520862    -0.15900
C1048       C  0.56159649  0.22494983  0.75258041    -0.13900
H1049       H  0.60062941  0.21355358  0.77853027     0.21500
H1050       H  0.61337922  0.25132810  0.70091449     0.17500
H1051       H  0.65845999  0.25226968  0.71286219     0.20100
H1052       H  0.55494045  0.21894055  0.76923127     0.13400
C1053       C  0.88092382  0.23684129  0.72141337     0.17300
C1054       C  0.90240877  0.22714711  0.71499018    -0.31800
C1055       C  0.92253623  0.24061134  0.71865158     0.21700
C1056       C  0.92121142  0.26290429  0.72780943     0.03900
C1057       C  0.89971996  0.27267546  0.73395184    -0.21500
C1058       C  0.87968595  0.25903248  0.73084011     0.13000
S1059       S  0.85474975  0.22277507  0.71992695    -0.05200
C1060       C  0.84206898  0.24682844  0.73268265    -0.08600
C1061       C  0.85743052  0.26489004  0.73732013    -0.25200
S1062       S  0.94757520  0.27552184  0.73320666    -0.02400
C1063       C  0.96068154  0.25055901  0.72312663    -0.15900
C1064       C  0.94518470  0.23343101  0.71591185    -0.13900
H1065       H  0.90345966  0.20956788  0.70826553     0.21500
H1066       H  0.89875691  0.28981170  0.74174894     0.17500
H1067       H  0.85265669  0.28125318  0.74535638     0.20100
H1068       H  0.95016521  0.21599971  0.71081924     0.13400
C1069       C  0.76549402  0.11895384  0.24878240     0.17300
C1070       C  0.77397270  0.09664654  0.25293812    -0.31800
C1071       C  0.76177583  0.07792367  0.24326387     0.21700
C1072       C  0.74192878  0.08106424  0.23002199     0.03900
C1073       C  0.73340963  0.10348277  0.22580227    -0.21500
C1074       C  0.74573254  0.12231225  0.23545042     0.13000
S1075       S  0.77795663  0.14381694  0.25913749    -0.05200
C1076       C  0.75641106  0.15906651  0.24530603    -0.08600
C1077       C  0.74048807  0.14541977  0.23327039    -0.25200
S1078       S  0.73030402  0.05581969  0.21921640    -0.02400
C1079       C  0.75244802  0.04112988  0.23286895    -0.15900
C1080       C  0.76787373  0.05513204  0.24489459    -0.13900
H1081       H  0.78951852  0.09399536  0.26316202     0.21500
H1082       H  0.71803734  0.10614398  0.21532763     0.17500
H1083       H  0.72577971  0.15204080  0.22365176     0.20100
H1084       H  0.78315576  0.04893826  0.25389791     0.13400
C1085       C  0.74459983  0.27481400  0.41552808     0.17300
C1086       C  0.73720629  0.27949877  0.39283763    -0.31800
C1087       C  0.74640012  0.26588585  0.37482094     0.21700
C1088       C  0.76238625  0.24844389  0.37914171     0.03900
C1089       C  0.76990932  0.24382465  0.40189279    -0.21500
C1090       C  0.76060812  0.25741179  0.41998396     0.13000
S1091       S  0.73413336  0.28838104  0.43971712    -0.05200
C1092       C  0.75142073  0.27046196  0.45616881    -0.08600
C1093       C  0.76475306  0.25491844  0.44339816    -0.25200
S1094       S  0.77141815  0.23392798  0.35477999    -0.02400
C1095       C  0.75352346  0.25164019  0.33864883    -0.15900
C1096       C  0.74118356  0.26776334  0.35165706    -0.13900
H1097       H  0.72455253  0.29295069  0.38941890     0.21500
H1098       H  0.78223445  0.23008770  0.40535884     0.17500
H1099       H  0.77581031  0.24171718  0.45088031     0.20100
H1100       H  0.72924406  0.28038111  0.34452618     0.13400
C1101       C  0.62357558  0.22625457  0.24685583     0.17300
C1102       C  0.60156064  0.21803245  0.24021909    -0.31800
C1103       C  0.58217593  0.22645186  0.25248863     0.21700
C1104       C  0.58474668  0.24177454  0.27101504     0.03900
C1105       C  0.60676189  0.24952895  0.27800147    -0.21500
C1106       C  0.62603181  0.24174358  0.26524383     0.13000
S1107       S  0.64899777  0.21984411  0.23285393    -0.05200
C1108       C  0.66302621  0.23849283  0.25177459    -0.08600
C1109       C  0.64863008  0.24883302  0.26817296    -0.25200
S1110       S  0.55931665  0.25251449  0.28164130    -0.02400
C1111       C  0.54497552  0.23684970  0.26046307    -0.15900
C1112       C  0.55926020  0.22324704  0.24655960    -0.13900
H1113       H  0.59955289  0.20653941  0.22538870     0.21500
H1114       H  0.60867703  0.26210022  0.29194624     0.17500
H1115       H  0.65433363  0.26108714  0.28133749     0.20100
H1116       H  0.55346456  0.21357033  0.23144090     0.13400
C1117       C  0.88284329  0.24417272  0.26154510     0.17300
C1118       C  0.90510333  0.23700780  0.26832521    -0.31800
C1119       C  0.92428407  0.24895469  0.25885824     0.21700
C1120       C  0.92134604  0.26732825  0.24350225     0.03900
C1121       C  0.89913071  0.27457624  0.23687436    -0.21500
C1122       C  0.87999409  0.26247883  0.24610808     0.13000
S1123       S  0.85740808  0.23150033  0.27043652    -0.05200
C1124       C  0.84276816  0.25097077  0.25304635    -0.08600
C1125       C  0.85704901  0.26644035  0.24110603    -0.25200
S1126       S  0.94655573  0.27826935  0.23224974    -0.02400
C1127       C  0.96129959  0.25777395  0.24815744    -0.15900
C1128       C  0.94731455  0.24350314  0.26180474    -0.13900
H1129       H  0.90737234  0.22242445  0.28001517     0.21500
H1130       H  0.89688510  0.28862329  0.22453674     0.17500
H1131       H  0.85099155  0.27980350  0.22934652     0.20100
H1132       H  0.95350618  0.22884612  0.27182155     0.13400
C1133       C  0.75894232  0.41671500  0.22683325     0.17300
C1134       C  0.76531431  0.39406066  0.22049344    -0.31800
C1135       C  0.75422830  0.37551282  0.23203740     0.21700
C1136       C  0.73702907  0.37928186  0.24864353     0.03900
C1137       C  0.73033060  0.40192357  0.25467355    -0.21500
C1138       C  0.74193617  0.42045861  0.24364584     0.13000
S1139       S  0.77247937  0.44149288  0.21714319    -0.05200
C1140       C  0.75535257  0.45696106  0.23628063    -0.08600
C1141       C  0.73978478  0.44352474  0.24907270    -0.25200
S1142       S  0.72660482  0.35449171  0.26150334    -0.02400
C1143       C  0.74594541  0.33887116  0.24464503    -0.15900
C1144       C  0.75937113  0.35236994  0.22962943    -0.13900
H1145       H  0.77906657  0.39103135  0.20789025     0.21500
H1146       H  0.71738585  0.40497048  0.26811209     0.17500
H1147       H  0.72853827  0.45018732  0.26272004     0.20100
H1148       H  0.77255626  0.34565149  0.21790080     0.13400
C1149       C  0.73873659  0.48841737  0.12673009     0.17300
C1150       C  0.73223594  0.48410490  0.14997086    -0.31800
C1151       C  0.74711646  0.49222184  0.16758451     0.21700
C1152       C  0.76744991  0.50428213  0.16229183     0.03900
C1153       C  0.77380561  0.50879262  0.13911520    -0.21500
C1154       C  0.75904156  0.50054844  0.12154033     0.13000
S1155       S  0.72357160  0.47937557  0.10272882    -0.05200
C1156       C  0.74488697  0.49207070  0.08564218    -0.08600
C1157       C  0.76256167  0.50282335  0.09801500    -0.25200
S1158       S  0.78330661  0.51251315  0.18601464    -0.02400
C1159       C  0.76229331  0.49964154  0.20330306    -0.15900
C1160       C  0.74407859  0.48944684  0.19118255    -0.13900
H1161       H  0.71642008  0.47462510  0.15413519     0.21500
H1162       H  0.78970165  0.51814086  0.13494753     0.17500
H1163       H  0.77732706  0.51163493  0.09012536     0.20100
H1164       H  0.72939094  0.48066096  0.19922570     0.13400
C1165       C  0.74696239  0.24758622  0.11833758     0.17300
C1166       C  0.74127323  0.24173884  0.09540433    -0.31800
C1167       C  0.75472274  0.25164330  0.07753701     0.21700
C1168       C  0.77266519  0.26720513  0.08213303     0.03900
C1169       C  0.77812723  0.27334151  0.10510797    -0.21500
C1170       C  0.76504244  0.26294555  0.12303272     0.13000
S1171       S  0.73387937  0.23602511  0.14246298    -0.05200
C1172       C  0.75317362  0.25184304  0.15908867    -0.08600
C1173       C  0.76864604  0.26550787  0.14643704    -0.25200
S1174       S  0.78800171  0.27584780  0.05798635    -0.02400
C1175       C  0.77024242  0.25795671  0.04180048    -0.15900
C1176       C  0.75329122  0.24628877  0.05441213    -0.13900
H1177       H  0.72753713  0.22932919  0.09167869     0.21500
H1178       H  0.79248511  0.28500354  0.10888393     0.17500
H1179       H  0.78208970  0.27640462  0.15395229     0.20100
H1180       H  0.74132851  0.23363171  0.04713480     0.13400
C1181       C  0.78129382  0.25929610  0.87537141     0.17300
C1182       C  0.79404525  0.25998448  0.89606069    -0.31800
C1183       C  0.78159296  0.26005555  0.91708895     0.21700
C1184       C  0.75745100  0.26011739  0.91758405     0.03900
C1185       C  0.74464402  0.25926767  0.89683260    -0.21500
C1186       C  0.75716196  0.25848530  0.87574664     0.13000
S1187       S  0.79336706  0.25838077  0.84819664    -0.05200
C1188       C  0.76570420  0.25592194  0.83712542    -0.08600
C1189       C  0.74806794  0.25631552  0.85375653    -0.25200
S1190       S  0.74572198  0.25942759  0.94501097    -0.02400
C1191       C  0.77362772  0.25845672  0.95568223    -0.15900
C1192       C  0.79095948  0.25886824  0.93892037    -0.13900
H1193       H  0.81288867  0.25989555  0.89578384     0.21500
H1194       H  0.72580875  0.25860636  0.89713453     0.17500
H1195       H  0.72966548  0.25507423  0.84995228     0.20100
H1196       H  0.80937077  0.25735625  0.94251344     0.13400
C1197       C  0.75136971  0.32794336  0.00475763     0.17300
C1198       C  0.74019584  0.34865750  0.01117330    -0.31800
C1199       C  0.74947485  0.36965898  0.00265001     0.21700
C1200       C  0.76888124  0.36999426  0.98816700     0.03900
C1201       C  0.77985528  0.34927644  0.98147027    -0.21500
C1202       C  0.77069995  0.32831109  0.99015859     0.13000
S1203       S  0.74362978  0.30080810  0.01436173    -0.05200
C1204       C  0.76671304  0.28991205  0.99856730    -0.08600
C1205       C  0.77945571  0.30647489  0.98635934    -0.25200
S1206       S  0.77783217  0.39722301  0.98016025    -0.02400
C1207       C  0.75522982  0.40837617  0.99654156    -0.15900
C1208       C  0.74149287  0.39165086  0.00745584    -0.13900
H1209       H  0.72518342  0.34844360  0.02266271     0.21500
H1210       H  0.79510110  0.34951708  0.97028777     0.17500
H1211       H  0.79472565  0.30276218  0.97588334     0.20100
H1212       H  0.72654842  0.39543291  0.01836986     0.13400
C1213       C  0.74166815  0.41390884  0.77617762     0.17300
C1214       C  0.75334146  0.39278526  0.77969872    -0.31800
C1215       C  0.74367929  0.37258251  0.76973084     0.21700
C1216       C  0.72284318  0.37326439  0.75768491     0.03900
C1217       C  0.71087585  0.39418634  0.75476966    -0.21500
C1218       C  0.72100845  0.41445689  0.76383668     0.13000
S1219       S  0.75261019  0.44086982  0.78286313    -0.05200
C1220       C  0.72963225  0.45285773  0.76797604    -0.08600
C1221       C  0.71393431  0.43667498  0.75935322    -0.25200
S1222       S  0.71471754  0.34741805  0.74549823    -0.02400
C1223       C  0.73990623  0.33546763  0.75624821    -0.15900
C1224       C  0.75352023  0.35083490  0.76908275    -0.13900
H1225       H  0.76994014  0.39234715  0.78851985     0.21500
H1226       H  0.69507697  0.39485827  0.74459445     0.17500
H1227       H  0.69934416  0.44093476  0.74830035     0.20100
H1228       H  0.76999001  0.34648547  0.77700282     0.13400
C1229       C  0.75406277  0.50056133  0.83364341     0.17300
C1230       C  0.76616860  0.50162118  0.85483850    -0.31800
C1231       C  0.75323975  0.49926034  0.87558787     0.21700
C1232       C  0.72928665  0.49618045  0.87520743     0.03900
C1233       C  0.71721187  0.49497733  0.85404584    -0.21500
C1234       C  0.73014396  0.49710192  0.83333227     0.13000
S1235       S  0.76657091  0.50275415  0.80657660    -0.05200
C1236       C  0.73935336  0.49863086  0.79488144    -0.08600
C1237       C  0.72160972  0.49579280  0.81105773    -0.25200
S1238       S  0.71669174  0.49376721  0.90214202    -0.02400
C1239       C  0.74397605  0.49660043  0.91415358    -0.15900
C1240       C  0.76180865  0.49946264  0.89795057    -0.13900
H1241       H  0.78486350  0.50403756  0.85513355     0.21500
H1242       H  0.69854439  0.49233506  0.85374235     0.17500
H1243       H  0.70354506  0.49274016  0.80669017     0.20100
H1244       H  0.78001128  0.50146056  0.90233451     0.13400
C1245       C  0.76060675  0.65791297  0.01076384     0.17300
C1246       C  0.76886178  0.63560819  0.01596048    -0.31800
C1247       C  0.75547838  0.61646099  0.00872157     0.21700
C1248       C  0.73473223  0.61937093  0.99685122     0.03900
C1249       C  0.72638137  0.64169914  0.99178534    -0.21500
C1250       C  0.73982512  0.66085249  0.99897614     0.13000
S1251       S  0.77451830  0.68329537  0.01777276    -0.05200
C1252       C  0.75216265  0.69805471  0.00458579    -0.08600
C1253       C  0.73481430  0.68390720  0.99549543    -0.25200
S1254       S  0.72139440  0.59389967  0.98902872    -0.02400
C1255       C  0.74405063  0.57922026  0.00182073    -0.15900
C1256       C  0.76084988  0.59342282  0.01175004    -0.13900
H1257       H  0.78511558  0.63327749  0.02509954     0.21500
H1258       H  0.71023370  0.64403521  0.98245637     0.17500
H1259       H  0.71922928  0.69013203  0.98714395     0.20100
H1260       H  0.77635776  0.58718032  0.02030259     0.13400
C1261       C  0.74848112  0.72422509  0.12376294     0.17300
C1262       C  0.74059786  0.71699873  0.10177850    -0.31800
C1263       C  0.75341234  0.72419975  0.08213755     0.21700
C1264       C  0.77352099  0.73746586  0.08439881     0.03900
C1265       C  0.78171092  0.74416111  0.10636589    -0.21500
C1266       C  0.76852241  0.73758244  0.12590297     0.13000
S1267       S  0.73429941  0.71920262  0.14954763    -0.05200
C1268       C  0.75535199  0.73568817  0.16326978    -0.08600
C1269       C  0.77258578  0.74415598  0.14849807    -0.25200
S1270       S  0.78505402  0.74690043  0.05867242    -0.02400
C1271       C  0.76240215  0.73315961  0.04462955    -0.15900
C1272       C  0.74710771  0.72136876  0.05922727    -0.13900
H1273       H  0.72459553  0.70713944  0.10000045     0.21500
H1274       H  0.79704128  0.75506030  0.10807460     0.17500
H1275       H  0.78710447  0.75491829  0.15393528     0.20100
H1276       H  0.73123570  0.71291642  0.05353952     0.13400
C1277       C  0.62608385  0.74266401  0.24924521     0.17300
C1278       C  0.60390098  0.73556972  0.24236918    -0.31800
C1279       C  0.58501492  0.74880797  0.24999044     0.21700
C1280       C  0.58788573  0.76827790  0.26396247     0.03900
C1281       C  0.61024412  0.77550244  0.27083037    -0.21500
C1282       C  0.62928570  0.76219261  0.26311574     0.13000
S1283       S  0.65096868  0.72878534  0.24143783    -0.05200
C1284       C  0.66620241  0.74950205  0.25683231    -0.08600
C1285       C  0.65244278  0.76621539  0.26762895    -0.25200
S1286       S  0.56223991  0.78098847  0.27227548    -0.02400
C1287       C  0.54770269  0.75974222  0.25670767    -0.15900
C1288       C  0.56219486  0.74398316  0.24565869    -0.13900
H1289       H  0.60144878  0.72025581  0.23162022     0.21500
H1290       H  0.61266664  0.79064132  0.28181758     0.17500
H1291       H  0.65901952  0.78067410  0.27780915     0.20100
H1292       H  0.55628764  0.72910134  0.23566804     0.13400
C1293       C  0.75891065  0.58187005  0.23026894     0.17300
C1294       C  0.74789990  0.60337738  0.22708469    -0.31800
C1295       C  0.75704258  0.62270446  0.23902832     0.21700
C1296       C  0.77637095  0.62072583  0.25324230     0.03900
C1297       C  0.78754134  0.59942135  0.25607699    -0.21500
C1298       C  0.77833050  0.58014850  0.24437171     0.13000
S1299       S  0.74894835  0.55568981  0.22001635    -0.05200
C1300       C  0.77090167  0.54244498  0.23541826    -0.08600
C1301       C  0.78549458  0.55773514  0.24698996    -0.25200
S1302       S  0.78478125  0.64590061  0.26646341    -0.02400
C1303       C  0.76219684  0.65950035  0.25252633    -0.15900
C1304       C  0.74875056  0.64502158  0.23858379    -0.13900
H1305       H  0.73252182  0.60484744  0.21637736     0.21500
H1306       H  0.80242612  0.59780016  0.26744472     0.17500
H1307       H  0.79935537  0.55250681  0.25854885     0.20100
H1308       H  0.73405200  0.65061552  0.22831648     0.13400
C1309       C  0.75259335  0.87519463  0.22387177     0.17300
C1310       C  0.75508896  0.89556670  0.21086791    -0.31800
C1311       C  0.74873054  0.91644800  0.22154182     0.21700
C1312       C  0.73993913  0.91713872  0.24409758     0.03900
C1313       C  0.73725159  0.89663013  0.25711659    -0.21500
C1314       C  0.74389827  0.87565578  0.24647822     0.13000
S1315       S  0.76025600  0.84839239  0.21409207    -0.05200
C1316       C  0.75156711  0.83742076  0.24066351    -0.08600
C1317       C  0.74323414  0.85388562  0.25628041    -0.25200
S1318       S  0.73524558  0.94462264  0.25444257    -0.02400
C1319       C  0.74583125  0.95502860  0.22829828    -0.15900
C1320       C  0.75200642  0.93809303  0.21237806    -0.13900
H1321       H  0.76229037  0.89522548  0.19338246     0.21500
H1322       H  0.73087591  0.89707103  0.27490774     0.17500
H1323       H  0.73717930  0.85015823  0.27379771     0.20100
H1324       H  0.76011762  0.94151313  0.19562676     0.13400
C1325       C  0.24788733  0.73297580  0.12488568     0.17300
C1326       C  0.23985542  0.72562905  0.10297898    -0.31800
C1327       C  0.24975847  0.73611997  0.08314728     0.21700
C1328       C  0.26702662  0.75295356  0.08514098     0.03900
C1329       C  0.27531176  0.75995239  0.10694984    -0.21500
C1330       C  0.26526278  0.74970501  0.12672205     0.13000
S1331       S  0.23708750  0.72371879  0.15109403    -0.05200
C1332       C  0.25618662  0.74263726  0.16462018    -0.08600
C1333       C  0.27019888  0.75521332  0.14942436    -0.25200
S1334       S  0.27509899  0.76550213  0.05950318    -0.02400
C1335       C  0.25494062  0.74805811  0.04576466    -0.15900
C1336       C  0.24291060  0.73300213  0.06043454    -0.13900
H1337       H  0.22597545  0.71290397  0.10149103     0.21500
H1338       H  0.28844244  0.77344823  0.10846518     0.17500
H1339       H  0.28294050  0.76811275  0.15467830     0.20100
H1340       H  0.22865801  0.72185332  0.05507266     0.13400
C1341       C  0.38300877  0.76106140  0.28155001     0.17300
C1342       C  0.40465663  0.75701332  0.29175900    -0.31800
C1343       C  0.42440785  0.76568708  0.28021127     0.21700
C1344       C  0.42271002  0.77882247  0.26002660     0.03900
C1345       C  0.40094511  0.78358271  0.25027742    -0.21500
C1346       C  0.38125060  0.77392102  0.26119486     0.13000
S1347       S  0.35744342  0.74904888  0.29093286    -0.05200
C1348       C  0.34432230  0.76093947  0.26680075    -0.08600
C1349       C  0.35900692  0.77407445  0.25274821    -0.25200
S1350       S  0.44883104  0.78484661  0.24688727    -0.02400
C1351       C  0.46196196  0.76873018  0.26833727    -0.15900
C1352       C  0.44690372  0.76006227  0.28515074    -0.13900
H1353       H  0.40616811  0.74616671  0.30709800     0.21500
H1354       H  0.39955404  0.79296144  0.23398974     0.17500
H1355       H  0.35386814  0.78255063  0.23675038     0.20100
H1356       H  0.45197536  0.74841762  0.29903767     0.13400
C1357       C  0.27319721  0.62250431  0.25942570     0.17300
C1358       C  0.28196605  0.60056636  0.26506343    -0.31800
C1359       C  0.27249264  0.58127703  0.25349779     0.21700
C1360       C  0.25503189  0.58363028  0.23710594     0.03900
C1361       C  0.24621140  0.60558308  0.23151799    -0.21500
C1362       C  0.25569954  0.62490925  0.24306115     0.13000
S1363       S  0.28244541  0.64803635  0.27143842    -0.05200
C1364       C  0.26246373  0.66215134  0.25429260    -0.08600
C1365       C  0.24941033  0.64765578  0.24007332    -0.25200
S1366       S  0.24528341  0.55793996  0.22571024    -0.02400
C1367       C  0.26515039  0.54391200  0.24303092    -0.15900
C1368       C  0.27832391  0.55854576  0.25699516    -0.13900
H1369       H  0.29550731  0.59860834  0.27795706     0.21500
H1370       H  0.23246126  0.60750232  0.21884969     0.17500
H1371       H  0.23611757  0.65344983  0.22813419     0.20100
H1372       H  0.29105934  0.55276536  0.26954434     0.13400
C1373       C  0.26726026  0.91977565  0.26769103     0.17300
C1374       C  0.26016541  0.89805890  0.27623849    -0.31800
C1375       C  0.26281340  0.87877251  0.26156845     0.21700
C1376       C  0.27246838  0.88090489  0.23946318     0.03900
C1377       C  0.27960417  0.90269340  0.23087825    -0.21500
C1378       C  0.27669347  0.92208779  0.24549623     0.13000
S1379       S  0.26308247  0.94536675  0.28198558    -0.05200
C1380       C  0.27382336  0.95950634  0.25777619    -0.08600
C1381       C  0.28073151  0.94497010  0.23975669    -0.25200
S1382       S  0.27459737  0.85519897  0.22464697    -0.02400
C1383       C  0.26214239  0.84152153  0.24843869    -0.15900
C1384       C  0.25664999  0.85629535  0.26672962    -0.13900
H1385       H  0.25240160  0.89635459  0.29340137     0.21500
H1386       H  0.28673392  0.90449590  0.21345796     0.17500
H1387       H  0.28632723  0.95090235  0.22270113     0.20100
H1388       H  0.24912471  0.85079440  0.28318825     0.13400
C1389       C  0.22877486  0.75256925  0.42201938     0.17300
C1390       C  0.22449895  0.76289868  0.40028869    -0.31800
C1391       C  0.23562354  0.75322523  0.38068829     0.21700
C1392       C  0.24982111  0.73388461  0.38268767     0.03900
C1393       C  0.25357698  0.72330721  0.40413949    -0.21500
C1394       C  0.24298318  0.73321325  0.42363970     0.13000
S1395       S  0.22014724  0.76348936  0.44844066    -0.05200
C1396       C  0.23650106  0.74206422  0.46138455    -0.08600
C1397       C  0.24713348  0.72695176  0.44605388    -0.25200
S1398       S  0.26261166  0.72510731  0.35751029    -0.02400
C1399       C  0.24869366  0.74763102  0.34377624    -0.15900
C1400       C  0.23487960  0.76127544  0.35818335    -0.13900
H1401       H  0.21387182  0.77832604  0.39886446     0.21500
H1402       H  0.26511534  0.70855456  0.40571016     0.17500
H1403       H  0.25898612  0.71327507  0.45109765     0.20100
H1404       H  0.22492693  0.77616210  0.35252924     0.13400
C1405       C  0.12713568  0.76417645  0.51404133     0.17300
C1406       C  0.14968196  0.77192712  0.51949989    -0.31800
C1407       C  0.16848753  0.75832186  0.51188034     0.21700
C1408       C  0.16492562  0.73798412  0.49929375     0.03900
C1409       C  0.14244161  0.73024649  0.49389566    -0.21500
C1410       C  0.12369373  0.74377990  0.50154779     0.13000
S1411       S  0.10200785  0.77814603  0.52158037    -0.05200
C1412       C  0.08679279  0.75627197  0.50772913    -0.08600
C1413       C  0.10058229  0.73914491  0.49786994    -0.25200
S1414       S  0.18979210  0.72406453  0.49117036    -0.02400
C1415       C  0.20524605  0.74576354  0.50493172    -0.15900
C1416       C  0.19174061  0.76286246  0.51530037    -0.13900
H1417       H  0.15243513  0.78786138  0.52921132     0.21500
H1418       H  0.13968718  0.71438096  0.48406781     0.17500
H1419       H  0.09399000  0.72416010  0.48848392     0.20100
H1420       H  0.19858597  0.77787761  0.52444047     0.13400
C1421       C  0.08856368  0.76291610  0.27447958     0.17300
C1422       C  0.11088966  0.77169550  0.27939426    -0.31800
C1423       C  0.12998396  0.76071336  0.26866541     0.21700
C1424       C  0.12690052  0.74174867  0.25400696     0.03900
C1425       C  0.10475577  0.73296729  0.24925513    -0.21500
C1426       C  0.08578735  0.74402697  0.25968588     0.13000
S1427       S  0.06285817  0.77481147  0.28378427    -0.05200
C1428       C  0.04852451  0.75432548  0.26712818    -0.08600
C1429       C  0.06298337  0.73897869  0.25555682    -0.25200
S1430       S  0.15182927  0.73078082  0.24245569    -0.02400
C1431       C  0.16688858  0.75192645  0.25740481    -0.15900
C1432       C  0.15306560  0.76672793  0.27067032    -0.13900
H1433       H  0.11322861  0.78668947  0.29059869     0.21500
H1434       H  0.10237263  0.71840614  0.23749152     0.17500
H1435       H  0.05708532  0.72573056  0.24347383     0.20100
H1436       H  0.15954017  0.78092481  0.28127728     0.13400
C1437       C  0.88378618  0.77354408  0.25346889     0.17300
C1438       C  0.90545751  0.78406633  0.24960343    -0.31800
C1439       C  0.92481059  0.77416063  0.26041358     0.21700
C1440       C  0.92271833  0.75498600  0.27494571     0.03900
C1441       C  0.90092219  0.74474251  0.27921700    -0.21500
C1442       C  0.88161973  0.75431183  0.26791375     0.13000
S1443       S  0.85850328  0.78197228  0.24061668    -0.05200
C1444       C  0.84481566  0.75931528  0.25483520    -0.08600
C1445       C  0.85924331  0.74608456  0.26880040    -0.25200
S1446       S  0.94868451  0.74400104  0.28413295    -0.02400
C1447       C  0.96239544  0.76513005  0.26770943    -0.15900
C1448       C  0.94749881  0.78015697  0.25640447    -0.13900
H1449       H  0.90730343  0.79873284  0.23788865     0.21500
H1450       H  0.89922305  0.72939877  0.29004564     0.17500
H1451       H  0.85367647  0.73116355  0.27895355     0.20100
H1452       H  0.95305607  0.79357123  0.24431368     0.13400
C1453       C  0.99751417  0.76728616  0.34027814     0.17300
C1454       C  0.98989359  0.77341435  0.36263519    -0.31800
C1455       C  0.99850358  0.76067464  0.38144323     0.21700
C1456       C  0.01413350  0.74263141  0.37823900     0.03900
C1457       C  0.02180806  0.73646896  0.35579488    -0.21500
C1458       C  0.01304726  0.74918141  0.33690188     0.13000
S1459       S  0.98849408  0.78038640  0.31532976    -0.05200
C1460       C  0.00537529  0.76094965  0.29996903    -0.08600
C1461       C  0.01773132  0.74549451  0.31370068    -0.25200
S1462       S  0.02275854  0.72967638  0.40354334    -0.02400
C1463       C  0.00530981  0.74905692  0.41849223    -0.15900
C1464       C  0.99328673  0.76434091  0.40443869    -0.13900
H1465       H  0.97768715  0.78747944  0.36525375     0.21500
H1466       H  0.03397020  0.72236691  0.35317336     0.17500
H1467       H  0.02889910  0.73187711  0.30705560     0.20100
H1468       H  0.98179466  0.77782658  0.41081956     0.13400
C1469       C  0.98334049  0.75241925  0.66791697     0.17300
C1470       C  0.97687556  0.74541190  0.64543842    -0.31800
C1471       C  0.98763063  0.75655079  0.62646677     0.21700
C1472       C  0.00407544  0.77398802  0.62967443     0.03900
C1473       C  0.01063095  0.78095304  0.65220616    -0.21500
C1474       C  0.99991405  0.76971616  0.67123034     0.13000
S1475       S  0.97199313  0.74121918  0.69309692    -0.05200
C1476       C  0.98971462  0.76000656  0.70842265    -0.08600
C1477       C  0.00377218  0.77405776  0.69448459    -0.25200
S1478       S  0.01520446  0.78512041  0.60428201    -0.02400
C1479       C  0.99768329  0.76584250  0.58921853    -0.15900
C1480       C  0.98388872  0.75182521  0.60334492    -0.13900
H1481       H  0.96400566  0.73183608  0.64284586     0.21500
H1482       H  0.02353978  0.79449091  0.65479330     0.17500
H1483       H  0.01573768  0.78710696  0.70098828     0.20100
H1484       H  0.97209233  0.73853778  0.59697970     0.13400
C1485       C  0.75626155  0.77226616  0.42111215     0.17300
C1486       C  0.74920517  0.77862207  0.39874157    -0.31800
C1487       C  0.75575296  0.76425558  0.38020043     0.21700
C1488       C  0.76882674  0.74437134  0.38372068     0.03900
C1489       C  0.77574012  0.73783263  0.40626186    -0.21500
C1490       C  0.76914824  0.75229748  0.42491592     0.13000
S1491       S  0.74863929  0.78687983  0.44566502    -0.05200
C1492       C  0.76241876  0.76570883  0.46158303    -0.08600
C1493       C  0.77295580  0.74849441  0.44829434    -0.25200
S1494       S  0.77545157  0.72973740  0.35861985    -0.02400
C1495       C  0.76043746  0.75070078  0.34334395    -0.15900
C1496       C  0.75072407  0.76787300  0.35718223    -0.13900
H1497       H  0.73885753  0.79405175  0.39593524     0.21500
H1498       H  0.78568633  0.72215590  0.40912498     0.17500
H1499       H  0.78124400  0.73318915  0.45536360     0.20100
H1500       H  0.74090500  0.78251931  0.35071099     0.13400
C1501       C  0.83655986  0.74577607  0.50902159     0.17300
C1502       C  0.85845995  0.73734928  0.51540623    -0.31800
C1503       C  0.87815227  0.74887490  0.50655380     0.21700
C1504       C  0.87614553  0.76784741  0.49178745     0.03900
C1505       C  0.85417992  0.77630694  0.48541372    -0.21500
C1506       C  0.83443195  0.76487804  0.49445689     0.13000
S1507       S  0.81074224  0.73451861  0.51852995    -0.05200
C1508       C  0.79673816  0.75605267  0.50327574    -0.08600
C1509       C  0.81153216  0.77081786  0.49095765    -0.25200
S1510       S  0.90221495  0.77939373  0.48295181    -0.02400
C1511       C  0.91588414  0.75858570  0.49951015    -0.15900
C1512       C  0.90091913  0.74351075  0.51110981    -0.13900
H1513       H  0.86007152  0.72257798  0.52697854     0.21500
H1514       H  0.85256474  0.79126132  0.47408742     0.17500
H1515       H  0.80587835  0.78548259  0.48065238     0.20100
H1516       H  0.90645642  0.72944562  0.52229534     0.13400
C1517       C  0.07319549  0.77174376  0.74679415     0.17300
C1518       C  0.09580063  0.77849431  0.75289982    -0.31800
C1519       C  0.11363121  0.76226961  0.74973806     0.21700
C1520       C  0.10923306  0.74037908  0.74052238     0.03900
C1521       C  0.08654892  0.73359922  0.73438361    -0.21500
C1522       C  0.06861647  0.74977946  0.73781534     0.13000
S1523       S  0.04912573  0.78816406  0.75168966    -0.05200
C1524       C  0.03253697  0.76520314  0.74185737    -0.08600
C1525       C  0.04518198  0.74596785  0.73473066    -0.25200
S1526       S  0.13341018  0.72338413  0.73782719    -0.02400
C1527       C  0.14953231  0.74592639  0.74949833    -0.15900
C1528       C  0.13665026  0.76548566  0.75512222    -0.13900
H1529       H  0.09924732  0.79548370  0.76034145     0.21500
H1530       H  0.08298586  0.71634798  0.72764097     0.17500
H1531       H  0.03756958  0.72948168  0.72957790     0.20100
H1532       H  0.14381505  0.78137041  0.76237302     0.13400
C1533       C  0.24853648  0.57566620  0.77446040     0.17300
C1534       C  0.25335440  0.59819281  0.78266747    -0.31800
C1535       C  0.24504249  0.61698877  0.76949795     0.21700
C1536       C  0.23202223  0.61347248  0.74949956     0.03900
C1537       C  0.22677360  0.59109363  0.74167692    -0.21500
C1538       C  0.23551104  0.57244007  0.75443952     0.13000
S1539       S  0.25938620  0.55044204  0.78588997    -0.05200
C1540       C  0.24631983  0.53573831  0.76320633    -0.08600
C1541       C  0.23402679  0.54969226  0.74810032    -0.25200
S1542       S  0.22433156  0.63820260  0.73528887    -0.02400
C1543       C  0.23900408  0.65366357  0.75631188    -0.15900
C1544       C  0.24910041  0.64016791  0.77353928    -0.13900
H1545       H  0.26388503  0.60095776  0.79802388     0.21500
H1546       H  0.21704878  0.58833382  0.72578416     0.17500
H1547       H  0.22547751  0.54358849  0.73244190     0.20100
H1548       H  0.25895466  0.64693948  0.78810374     0.13400
C1549       C  0.36923396  0.75628427  0.74377927     0.17300
C1550       C  0.39120738  0.76127706  0.73422064    -0.31800
C1551       C  0.41006983  0.76266674  0.74956745     0.21700
C1552       C  0.40704750  0.75994430  0.77341218     0.03900
C1553       C  0.38509988  0.75494136  0.78293911    -0.21500
C1554       C  0.36639176  0.75275508  0.76754277     0.13000
S1555       S  0.34418446  0.75372061  0.72817913    -0.05200
C1556       C  0.32987142  0.74720817  0.75387714    -0.08600
C1557       C  0.34388439  0.74716195  0.77341103    -0.25200
S1558       S  0.43223901  0.76009848  0.78889087    -0.02400
C1559       C  0.44711416  0.76301382  0.76295945    -0.15900
C1560       C  0.43310562  0.76442936  0.74345843    -0.13900
H1561       H  0.39359966  0.76330018  0.71559320     0.21500
H1562       H  0.38285906  0.75205238  0.80146668     0.17500
H1563       H  0.33776053  0.74411084  0.79103642     0.20100
H1564       H  0.43951371  0.76441967  0.72566667     0.13400
C1565       C  0.24943042  0.75729277  0.62714374     0.17300
C1566       C  0.25758034  0.76484092  0.60548704    -0.31800
C1567       C  0.24640467  0.75618123  0.58572493     0.21700
C1568       C  0.22782198  0.74076274  0.58724609     0.03900
C1569       C  0.21969299  0.73308108  0.60902792    -0.21500
C1570       C  0.23102936  0.74164709  0.62890799     0.13000
S1571       S  0.26085707  0.76586334  0.65302516    -0.05200
C1572       C  0.24084551  0.74796734  0.66654190    -0.08600
C1573       C  0.22606706  0.73609315  0.65162108    -0.25200
S1574       S  0.21743718  0.73170380  0.56083365    -0.02400
C1575       C  0.23858657  0.74875804  0.54787559    -0.15900
C1576       C  0.25259566  0.76080298  0.56328683    -0.13900
H1577       H  0.27217238  0.77677899  0.60408502     0.21500
H1578       H  0.20541132  0.72078614  0.61041155     0.17500
H1579       H  0.21243351  0.72418417  0.65708898     0.20100
H1580       H  0.26724145  0.77168754  0.55828470     0.13400
C1581       C  0.24056107  0.72787752  0.88601820     0.17300
C1582       C  0.24771351  0.72202406  0.90855506    -0.31800
C1583       C  0.23511143  0.73132560  0.92731505     0.21700
C1584       C  0.21589809  0.74537383  0.92376205     0.03900
C1585       C  0.20841874  0.75077971  0.90123248    -0.21500
C1586       C  0.22140161  0.74199296  0.88249510     0.13000
S1587       S  0.25482896  0.72013264  0.86109010    -0.05200
C1588       C  0.23498756  0.73637935  0.84575153    -0.08600
C1589       C  0.21805637  0.74688339  0.85939518    -0.25200
S1590       S  0.20481398  0.75743157  0.94851448    -0.02400
C1591       C  0.22650960  0.74373981  0.96380605    -0.15900
C1592       C  0.24110093  0.73005386  0.95036470    -0.13900
H1593       H  0.26308395  0.71159410  0.91134588     0.21500
H1594       H  0.19385568  0.76231237  0.89844661     0.17500
H1595       H  0.20436639  0.75792591  0.85282691     0.20100
H1596       H  0.25657808  0.72155457  0.95675544     0.13400
C1597       C  0.23941890  0.87240378  0.77505175     0.17300
C1598       C  0.23485823  0.89415386  0.78484900    -0.31800
C1599       C  0.24592242  0.91352324  0.77495478     0.21700
C1600       C  0.26072214  0.91158863  0.75592406     0.03900
C1601       C  0.26539301  0.88967459  0.74607391    -0.21500
C1602       C  0.25443122  0.87014032  0.75618098     0.13000
S1603       S  0.22753841  0.84698216  0.78478476    -0.05200
C1604       C  0.24309156  0.83284822  0.76341511    -0.08600
C1605       C  0.25664630  0.84733463  0.74939275    -0.25200
S1606       S  0.27074771  0.93782708  0.74559478    -0.02400
C1607       C  0.25478771  0.95133719  0.76722517    -0.15900
C1608       C  0.24272812  0.93605376  0.78160649    -0.13900
H1609       H  0.22300658  0.89593817  0.79948124     0.21500
H1610       H  0.27681027  0.88795257  0.73110026     0.17500
H1611       H  0.26750745  0.84150154  0.73507135     0.20100
H1612       H  0.23092493  0.94130954  0.79540980     0.13400
C1613       C  0.61032861  0.76606499  0.75042110     0.17300
C1614       C  0.58796004  0.77346847  0.74438923    -0.31800
C1615       C  0.56940013  0.76623695  0.75865814     0.21700
C1616       C  0.57306152  0.75270164  0.77831018     0.03900
C1617       C  0.59543089  0.74588050  0.78466999    -0.21500
C1618       C  0.61384671  0.75258192  0.77011098     0.13000
S1619       S  0.63498767  0.77145478  0.73457125    -0.05200
C1620       C  0.65004603  0.75520612  0.75467139    -0.08600
C1621       C  0.63656768  0.74632429  0.77265292    -0.25200
S1622       S  0.54834746  0.74314865  0.79169283    -0.02400
C1623       C  0.53285017  0.75735069  0.77053287    -0.15900
C1624       C  0.54620294  0.76926396  0.75427978    -0.13900
H1625       H  0.58504517  0.78355908  0.72875635     0.21500
H1626       H  0.59823655  0.73488638  0.79970496     0.17500
H1627       H  0.64304929  0.73584210  0.78686331     0.20100
H1628       H  0.53934168  0.77795932  0.73907739     0.13400
C1629       C  0.72597113  0.61709597  0.76464144     0.17300
C1630       C  0.71837229  0.59497947  0.77191332    -0.31800
C1631       C  0.73170589  0.57567871  0.76514048     0.21700
C1632       C  0.75173533  0.57834811  0.75177854     0.03900
C1633       C  0.75944818  0.60044466  0.74473868    -0.21500
C1634       C  0.74603399  0.61968771  0.75133884     0.13000
S1635       S  0.71215161  0.64266837  0.77073879    -0.05200
C1636       C  0.73358633  0.65702084  0.75512164    -0.08600
C1637       C  0.75044813  0.64251086  0.74574670    -0.25200
S1638       S  0.76427508  0.55281959  0.74342840    -0.02400
C1639       C  0.74245214  0.53830718  0.75818632    -0.15900
C1640       C  0.72641145  0.55265069  0.76909909    -0.13900
H1641       H  0.70254327  0.59287770  0.78204015     0.21500
H1642       H  0.77493653  0.60249596  0.73408163     0.17500
H1643       H  0.76536684  0.64837851  0.73569486     0.20100
H1644       H  0.71082143  0.54654884  0.77791003     0.13400
C1645       C  0.76725797  0.74608530  0.58780053     0.17300
C1646       C  0.76666749  0.73465732  0.60929180    -0.31800
C1647       C  0.75850947  0.74718908  0.62856241     0.21700
C1648       C  0.75163055  0.77020516  0.62667508     0.03900
C1649       C  0.75301720  0.78189225  0.60533971    -0.21500
C1650       C  0.76085796  0.76922881  0.58598085     0.13000
S1651       S  0.77230256  0.73268415  0.56177925    -0.05200
C1652       C  0.76617249  0.75861830  0.54824703    -0.08600
C1653       C  0.76060027  0.77659259  0.56336999    -0.25200
S1654       S  0.74087749  0.78187258  0.65180764    -0.02400
C1655       C  0.74594495  0.75549110  0.66498563    -0.15900
C1656       C  0.75543731  0.73868598  0.65057603    -0.13900
H1657       H  0.77123199  0.71645912  0.61071105     0.21500
H1658       H  0.74725663  0.79972429  0.60368860     0.17500
H1659       H  0.75429328  0.79345022  0.55790704     0.20100
H1660       H  0.75979543  0.72117716  0.65590897     0.13400
C1661       C  0.73881479  0.72106549  0.91942898     0.17300
C1662       C  0.72838808  0.71839304  0.89753539    -0.31800
C1663       C  0.74080978  0.72649916  0.87799792     0.21700
C1664       C  0.76281102  0.73629637  0.88008947     0.03900
C1665       C  0.77349682  0.73825501  0.90181776    -0.21500
C1666       C  0.76091046  0.73064309  0.92134980     0.13000
S1667       S  0.72522513  0.71622582  0.94560364    -0.05200
C1668       C  0.74961335  0.72721790  0.95914641    -0.08600
C1669       C  0.76725553  0.73388715  0.94400281    -0.25200
S1670       S  0.77434706  0.74670324  0.85471177    -0.02400
C1671       C  0.74927173  0.73776596  0.84103321    -0.15900
C1672       C  0.73299054  0.72714836  0.85551224    -0.13900
H1673       H  0.71091494  0.71145174  0.89592072     0.21500
H1674       H  0.79042509  0.74642807  0.90356007     0.17500
H1675       H  0.78310995  0.74264559  0.94930542     0.20100
H1676       H  0.71614104  0.72074666  0.84998206     0.13400
C1677       C  0.73727185  0.87448017  0.78303192     0.17300
C1678       C  0.74267247  0.89573807  0.79358800    -0.31800
C1679       C  0.73189791  0.91571073  0.78495029     0.21700
C1680       C  0.71595009  0.91467278  0.76694864     0.03900
C1681       C  0.70998664  0.89319339  0.75677840    -0.21500
C1682       C  0.72128895  0.87319201  0.76505005     0.13000
S1683       S  0.75038974  0.84880752  0.78959619    -0.05200
C1684       C  0.73440529  0.83601166  0.76774122    -0.08600
C1685       C  0.71942748  0.85101192  0.75627788    -0.25200
S1686       S  0.70716507  0.94143996  0.75726234    -0.02400
C1687       C  0.72554010  0.95399058  0.77746475    -0.15900
C1688       C  0.73716843  0.93805016  0.79119066    -0.13900
H1689       H  0.75560452  0.89682129  0.80721136     0.21500
H1690       H  0.69799086  0.89225725  0.74231813     0.17500
H1691       H  0.70821571  0.84607585  0.74197264     0.20100
H1692       H  0.75022932  0.94260890  0.80397108     0.13400
C1693       C  0.86843040  0.74133763  0.73646368     0.17300
C1694       C  0.89109777  0.73304737  0.73328984    -0.31800
C1695       C  0.90946271  0.74891530  0.73610020     0.21700
C1696       C  0.90543227  0.77209395  0.74145131     0.03900
C1697       C  0.88277605  0.78037734  0.74468525    -0.21500
C1698       C  0.86444569  0.76440669  0.74231242     0.13000
S1699       S  0.84387745  0.72464527  0.73473067    -0.05200
C1700       C  0.82815909  0.74883599  0.74267535    -0.08600
C1701       C  0.84133826  0.76880411  0.74600909    -0.25200
S1702       S  0.93001690  0.78817521  0.74573832    -0.02400
C1703       C  0.94590222  0.76342182  0.74035446    -0.15900
C1704       C  0.93270640  0.74380012  0.73560906    -0.13900
H1705       H  0.89430106  0.71490235  0.72938780     0.21500
H1706       H  0.87961802  0.79830940  0.74952423     0.17500
H1707       H  0.83440550  0.78555332  0.75111128     0.20100
H1708       H  0.93967846  0.72644929  0.73352318     0.13400
loop_ 
_geom_bond_atom_site_label_1 
_geom_bond_atom_site_label_2 
_geom_bond_distance 
_geom_bond_site_symmetry_2 
_ccdc_geom_bond_type 
Zn1           O5   1.938       .  S
Zn1           O6   2.024       .  S
Zn1          O10   2.013       .  S
Zn1          O17   2.009       .  S
Zn2           O5   1.947       .  S
Zn2           O7   2.008       .  S
Zn2           O9   2.031       .  S
Zn2          O13   2.014       .  S
Zn3           O5   1.947       .  S
Zn3           O8   2.002       .  S
Zn3          O11   1.995       .  S
Zn3          O14   2.017       .  S
Zn4           O5   1.937       .  S
Zn4          O12   2.011       .  S
Zn4          O15   2.012       .  S
Zn4          O16   2.006       .  S
O6           C18   1.274       .  A
O7           C19   1.275       .  A
O8           C20   1.272       .  A
O9           C18   1.275       .  A
O10          C20   1.275       .  A
O11          C19   1.272       .  A
O12          C21   1.272       .  A
O13          C22   1.272       .  A
O14          C21   1.271       .  A
O15          C22   1.273       .  A
O16          C23   1.273       .  A
O17          C23   1.273       .  A
C18        C1636   1.478       .  S
C19        C1655   1.462       .  S
C20        C1620   1.467       .  S
C21        C1684   1.473       .  S
C22        C1700   1.467       .  S
C23        C1671   1.467       .  S
Zn24         O28   1.956       .  S
Zn24         O29   2.027       .  S
Zn24         O33   2.033       .  S
Zn24         O40   2.020       .  S
Zn25         O28   1.964       .  S
Zn25         O30   2.022       .  S
Zn25         O32   2.007       .  S
Zn25         O36   2.048       .  S
Zn26         O28   1.959       .  S
Zn26         O31   2.020       .  S
Zn26         O34   2.007       .  S
Zn26         O37   2.025       .  S
Zn27         O28   1.947       .  S
Zn27         O35   1.977       .  S
Zn27         O38   1.989       .  S
Zn27         O39   2.006       .  S
O29          C41   1.275       .  A
O30          C42   1.274       .  A
O31          C43   1.273       .  A
O32          C41   1.273       .  A
O33          C43   1.275       .  A
O34          C42   1.274       .  A
O35          C44   1.269       .  A
O36          C45   1.276       .  A
O37          C44   1.274       .  A
O38          C45   1.268       .  A
O39          C46   1.271       .  A
O40          C46   1.274       .  A
C41        C1588   1.471       .  S
C42        C1543   1.468       .  S
C43        C1527   1.475       .  S
C44        C1572   1.464       .  S
C45        C1556   1.468       .  S
C46        C1604   1.471       .  S
N47          C51   1.360       .  A
N47          C48   1.360       .  A
N47        C1508   1.443       .  S
C48        C1492   1.471       .  S
C48          C49   1.382       .  A
C49          C50   1.366       .  A
C49          H52   1.082       .  S
C50          C51   1.379       .  A
C50          H53   1.083       .  S
C51        C1652   1.468       .  S
N54          C58   1.359   1_655  A
N54          C55   1.359       .  A
N54        C1476   1.444       .  S
C55        C1703   1.466       .  S
C55          C56   1.379       .  A
C56          C57   1.368   1_655  A
C56          H59   1.082       .  S
C57          C58   1.381       .  A
C57          H60   1.082       .  S
C58        C1524   1.468       .  S
N61          C65   1.357       .  A
N61          C62   1.358   1_455  A
N61        C1460   1.440       .  S
C62        C1447   1.471       .  S
C62          C63   1.381       .  A
C63          C64   1.370   1_655  A
C63          H66   1.082       .  S
C64          C65   1.382       .  A
C64          H67   1.082       .  S
C65        C1428   1.471       .  S
N68          C73   1.354       .  A
N68          C72   1.354       .  A
N68         H100   1.039       .  S
N69          C76   1.352       .  A
N69          C77   1.352       .  A
N70          C75   1.354       .  A
N70          C74   1.354       .  A
N70         H101   1.040       .  S
N71          C78   1.353       .  A
N71          C79   1.354       .  A
C72          C80   1.387       .  A
C72          C88   1.417   1_655  A
C73          C89   1.416       .  A
C73          C81   1.387       .  A
C74          C82   1.385       .  A
C74          C91   1.413       .  A
C75          C90   1.416   1_455  A
C75          C83   1.387       .  A
C76          C88   1.413       .  A
C76          C84   1.387       .  A
C77          C91   1.411       .  A
C77          C85   1.385       .  A
C78          C86   1.386       .  A
C78          C89   1.416       .  A
C79          C87   1.386       .  A
C79          C90   1.416       .  A
C80          C81   1.376       .  A
C80          H92   1.082       .  S
C81          H93   1.082       .  S
C82          C83   1.374       .  A
C82          H94   1.082       .  S
C83          H95   1.082       .  S
C84          C85   1.371       .  A
C84          H96   1.082       .  S
C85          H97   1.082       .  S
C86          C87   1.374       .  A
C86          H98   1.082       .  S
C87          H99   1.082       .  S
C88        C1463   1.485       .  S
C89        C1511   1.485       .  S
C90        C1479   1.490       .  S
C91        C1412   1.484       .  S
N102        C106   1.353       .  A
N102        C103   1.356       .  A
N102       C1415   1.437       .  S
C103       C1575   1.468       .  S
C103        C104   1.383       .  A
C104        C105   1.368       .  A
C104        H107   1.082       .  S
C105        C106   1.381       .  A
C105        H108   1.082       .  S
C106       C1396   1.466       .  S
Zn109       O113   1.952       .  S
Zn109       O114   2.043       .  S
Zn109       O118   2.034       .  S
Zn109       O125   2.017       .  S
Zn110       O113   1.943       .  S
Zn110       O115   2.024       .  S
Zn110       O117   2.009       .  S
Zn110       O121   2.006       .  S
Zn111       O113   1.934       .  S
Zn111       O116   1.989       .  S
Zn111       O119   1.999       .  S
Zn111       O122   1.973       .  S
Zn112       O113   1.968       .  S
Zn112       O120   2.034       .  S
Zn112       O123   2.026       .  S
Zn112       O124   2.031       .  S
O114        C126   1.278       .  A
O115        C127   1.273       .  A
O116        C128   1.270       .  A
O117        C126   1.272       .  A
O118        C128   1.276       .  A
O119        C127   1.270       .  A
O120        C129   1.274       .  A
O121        C130   1.275       .  A
O122        C129   1.269       .  A
O123        C130   1.275       .  A
O124        C131   1.277       .  A
O125        C131   1.274       .  A
C126       C1332   1.476       .  S
C127       C1364   1.470       .  S
C128       C1348   1.470       .  S
C129       C1399   1.466       .  S
C130       C1431   1.470       .  S
C131       C1383   1.474       .  S
Zn132       O136   1.947       .  S
Zn132       O137   2.008       .  S
Zn132       O141   2.005       .  S
Zn132       O148   2.003       .  S
Zn133       O136   1.971       .  S
Zn133       O138   2.034       .  S
Zn133       O140   2.041       .  S
Zn133       O144   2.037       .  S
Zn134       O136   1.947       .  S
Zn134       O139   2.013       .  S
Zn134       O142   1.995       .  S
Zn134       O145   2.026       .  S
Zn135       O136   1.950       .  S
Zn135       O143   2.019       .  S
Zn135       O146   1.999       .  S
Zn135       O147   2.012       .  S
O137        C149   1.272       .  A
O138        C150   1.276       .  A
O139        C151   1.272       .  A
O140        C149   1.277       .  A
O141        C151   1.272       .  A
O142        C150   1.272       .  A
O143        C152   1.272       .  A
O144        C153   1.276       .  A
O145        C152   1.274       .  A
O146        C153   1.273       .  A
O147        C154   1.272       .  A
O148        C154   1.272       .  A
C149       C1495   1.475       .  S
C150       C1316   1.468       .  S
C151       C1444   1.469       .  S
C152       C1268   1.476       .  S
C153       C1284   1.472       .  S
C154       C1303   1.469       .  S
N155        C159   1.359       .  A
N155        C156   1.359   1_554  A
N155       C1252   1.440       .  S
C156       C1668   1.473       .  S
C156        C157   1.383       .  A
C157        C158   1.370   1_556  A
C157        H160   1.083       .  S
C158        C159   1.380       .  A
C158        H161   1.082       .  S
C159       C1271   1.473       .  S
N162        C166   1.356       .  A
N162        C163   1.356       .  A
N162       C1236   1.435       .  S
C163       C1639   1.472       .  S
C163        C164   1.381       .  A
C164        C165   1.374       .  A
C164        H167   1.082       .  S
C165        C166   1.383       .  A
C165        H168   1.082       .  S
C166       C1220   1.475       .  S
N169        C173   1.353   1_556  A
N169        C170   1.353       .  A
N169       C1204   1.438       .  S
C170       C1191   1.465       .  S
C170        C171   1.381       .  A
C171        C172   1.375   1_556  A
C171        H174   1.082       .  S
C172        C173   1.381       .  A
C172        H175   1.082       .  S
C173       C1175   1.465       .  S
N176        C181   1.358       .  A
N176        C180   1.354       .  A
N176        H208   1.034       .  S
N177        C184   1.355       .  A
N177        C185   1.355       .  A
N178        C183   1.356       .  A
N178        C182   1.355       .  A
N178        H209   1.030       .  S
N179        C186   1.353       .  A
N179        C187   1.352       .  A
C180        C188   1.387       .  A
C180        C196   1.418       .  A
C181        C197   1.420       .  A
C181        C189   1.388       .  A
C182        C190   1.387       .  A
C182        C199   1.416       .  A
C183        C198   1.417       .  A
C183        C191   1.387       .  A
C184        C196   1.419   1_554  A
C184        C192   1.387       .  A
C185        C199   1.417       .  A
C185        C193   1.386       .  A
C186        C194   1.386       .  A
C186        C197   1.415       .  A
C187        C195   1.386       .  A
C187        C198   1.415   1_556  A
C188        C189   1.375       .  A
C188        H200   1.082       .  S
C189        H201   1.082       .  S
C190        C191   1.376       .  A
C190        H202   1.083       .  S
C191        H203   1.082       .  S
C192        C193   1.374       .  A
C192        H204   1.082       .  S
C193        H205   1.082       .  S
C194        C195   1.374       .  A
C194        H206   1.082       .  S
C195        H207   1.082       .  S
C196       C1207   1.490       .  S
C197       C1239   1.490       .  S
C198       C1255   1.485       .  S
C199       C1156   1.485       .  S
N210        C214   1.356       .  A
N210        C211   1.358       .  A
N210       C1159   1.439       .  S
C211       C1140   1.471       .  S
C211        C212   1.381       .  A
C212        C213   1.371       .  A
C212        H215   1.082       .  S
C213        C214   1.383       .  A
C213        H216   1.082       .  S
C214       C1300   1.474       .  S
Zn217       O221   1.953       .  S
Zn217       O222   2.017       .  S
Zn217       O226   2.011       .  S
Zn217       O233   2.006       .  S
Zn218       O221   1.957       .  S
Zn218       O223   1.997       .  S
Zn218       O225   2.003       .  S
Zn218       O229   2.003       .  S
Zn219       O221   1.962       .  S
Zn219       O224   2.020       .  S
Zn219       O227   2.031       .  S
Zn219       O230   2.030       .  S
Zn220       O221   1.960       .  S
Zn220       O228   2.023       .  S
Zn220       O231   2.012       .  S
Zn220       O232   2.037       .  S
O222        C234   1.273       .  A
O223        C235   1.270       .  A
O224        C236   1.275       .  A
O225        C234   1.271       .  A
O226        C236   1.273       .  A
O227        C235   1.275       .  A
O228        C237   1.275       .  A
O229        C238   1.272       .  A
O230        C237   1.275       .  A
O231        C238   1.274       .  A
O232        C239   1.276       .  A
O233        C239   1.271       .  A
C234       C1076   1.468       .  S
C235       C1108   1.471       .  S
C236       C1095   1.471       .  S
C237       C1143   1.476       .  S
C238       C1172   1.468       .  S
C239       C1124   1.474       .  S
Zn240       O244   1.935       .  S
Zn240       O245   1.996       .  S
Zn240       O249   2.004       .  S
Zn240       O256   2.008       .  S
Zn241       O244   1.946       .  S
Zn241       O246   2.039       .  S
Zn241       O248   2.047       .  S
Zn241       O252   2.018       .  S
Zn242       O244   1.934       .  S
Zn242       O247   2.037       .  S
Zn242       O250   2.016       .  S
Zn242       O253   2.017       .  S
Zn243       O244   1.949       .  S
Zn243       O251   2.003       .  S
Zn243       O254   2.035       .  S
Zn243       O255   2.041       .  S
O245        C257   1.272       .  A
O246        C258   1.276       .  A
O247        C259   1.276       .  A
O248        C257   1.279       .  A
O249        C259   1.271       .  A
O250        C258   1.274       .  A
O251        C260   1.273       .  A
O252        C261   1.275       .  A
O253        C260   1.276       .  A
O254        C261   1.276       .  A
O255        C262   1.276       .  A
O256        C262   1.273       .  A
C257       C1060   1.474       .  S
C258       C1223   1.477       .  S
C259       C1028   1.471       .  S
C260       C1044   1.467       .  S
C261       C1188   1.471       .  S
C262       C1012   1.477       .  S
N263        C267   1.359   1_565  A
N263        C264   1.360       .  A
N263        C999   1.437       .  S
C264       C1687   1.481       .  S
C264        C265   1.384       .  A
C265        C266   1.371   1_565  A
C265        H268   1.082       .  S
C266        C267   1.380       .  A
C266        H269   1.082       .  S
C267       C1015   1.477       .  S
N270        C274   1.358       .  A
N270        C271   1.358       .  A
N270        C980   1.445       .  S
C271       C1559   1.464       .  S
C271        C272   1.381       .  A
C272        C273   1.369       .  A
C272        H275   1.082       .  S
C273        C274   1.380       .  A
C273        H276   1.082       .  S
C274       C1623   1.465       .  S
N277        C281   1.357   1_565  A
N277        C278   1.361       .  A
N277        C964   1.438       .  S
C278       C1607   1.478       .  S
C278        C279   1.385       .  A
C279        C280   1.367   1_565  A
C279        H282   1.082       .  S
C280        C281   1.378       .  A
C280        H283   1.082       .  S
C281        C948   1.469       .  S
N284        C289   1.355       .  A
N284        C288   1.353       .  A
N284        H316   1.039       .  S
N285        C292   1.352       .  A
N285        C293   1.353       .  A
N286        C291   1.353       .  A
N286        C290   1.355       .  A
N286        H317   1.039       .  S
N287        C294   1.355       .  A
N287        C295   1.352       .  A
C288        C296   1.387       .  A
C288        C304   1.415   1_565  A
C289        C305   1.418       .  A
C289        C297   1.387       .  A
C290        C298   1.386       .  A
C290        C307   1.416       .  A
C291        C306   1.416   1_545  A
C291        C299   1.388       .  A
C292        C304   1.412       .  A
C292        C300   1.386       .  A
C293        C307   1.413       .  A
C293        C301   1.386       .  A
C294        C302   1.387       .  A
C294        C305   1.418       .  A
C295        C303   1.385       .  A
C295        C306   1.413       .  A
C296        C297   1.376       .  A
C296        H308   1.083       .  S
C297        H309   1.082       .  S
C298        C299   1.375       .  A
C298        H310   1.082       .  S
C299        H311   1.082       .  S
C300        C301   1.372       .  A
C300        H312   1.082       .  S
C301        H313   1.082       .  S
C302        C303   1.372       .  A
C302        H314   1.081       .  S
C303        H315   1.082       .  S
C304        C967   1.479       .  S
C305        C983   1.495       .  S
C306        C996   1.482       .  S
C307        C932   1.486       .  S
N318        C322   1.357       .  A
N318        C319   1.357       .  A
N318        C935   1.443       .  S
C319        C916   1.467       .  S
C319        C320   1.381       .  A
C320        C321   1.371       .  A
C320        H323   1.082       .  S
C321        C322   1.380       .  A
C321        H324   1.082       .  S
C322       C1047   1.465       .  S
Zn325       O329   1.953       .  S
Zn325       O330   2.015       .  S
Zn325       O334   2.002       .  S
Zn325       O341   2.039       .  S
Zn326       O329   1.962       .  S
Zn326       O331   2.049       .  S
Zn326       O333   2.036       .  S
Zn326       O337   2.044       .  S
Zn327       O329   1.953       .  S
Zn327       O332   2.027       .  S
Zn327       O335   2.042       .  S
Zn327       O338   2.027       .  S
Zn328       O329   1.947       .  S
Zn328       O336   2.003       .  S
Zn328       O339   2.006       .  S
Zn328       O340   2.013       .  S
O330        C342   1.275       .  A
O331        C343   1.276       .  A
O332        C344   1.276       .  A
O333        C342   1.277       .  A
O334        C344   1.272       .  A
O335        C343   1.276       .  A
O336        C345   1.271       .  A
O337        C346   1.278       .  A
O338        C345   1.275       .  A
O339        C346   1.273       .  A
O340        C347   1.273       .  A
O341        C347   1.274       .  A
C342        C868   1.475       .  S
C343        C852   1.488       .  S
C344        C951   1.470       .  S
C345        C903   1.467       .  S
C346        C887   1.472       .  S
C347        C919   1.478       .  S
N348        C352   1.359       .  A
N348        C349   1.359   1_554  A
N348        C839   1.444       .  S
C349       C1591   1.469       .  S
C349        C350   1.381       .  A
C350        C351   1.369   1_556  A
C350        H353   1.082       .  S
C351        C352   1.382       .  A
C351        H354   1.082       .  S
C352       C1335   1.472       .  S
N355        C359   1.355       .  A
N355        C356   1.356       .  A
N355        C820   1.439       .  S
C356       C1540   1.470       .  S
C356        C357   1.384       .  A
C357        C358   1.369       .  A
C357        H360   1.082       .  S
C358        C359   1.379       .  A
C358        H361   1.082       .  S
C359        C884   1.462       .  S
N362        C366   1.362   1_556  A
N362        C363   1.360       .  A
N362        C807   1.446       .  S
C363        C900   1.467       .  S
C363        C364   1.378       .  A
C364        C365   1.366       .  A
C364        H367   1.083       .  S
C365        C366   1.382   1_556  A
C365        H368   1.082   1_556  S
C366        C788   1.473       .  S
N369        C374   1.353       .  A
N369        C373   1.356       .  A
N369        H401   1.039       .  S
N370        C377   1.354       .  A
N370        C378   1.354       .  A
N371        C376   1.356       .  A
N371        C375   1.356       .  A
N371        H402   1.039       .  S
N372        C379   1.356       .  A
N372        C380   1.356       .  A
C373        C381   1.387       .  A
C373        C389   1.418       .  A
C374        C390   1.417       .  A
C374        C382   1.387       .  A
C375        C383   1.388       .  A
C375        C392   1.421       .  A
C376        C391   1.420       .  A
C376        C384   1.387       .  A
C377        C389   1.416   1_554  A
C377        C385   1.385       .  A
C378        C392   1.417       .  A
C378        C386   1.387       .  A
C379        C387   1.386       .  A
C379        C390   1.418       .  A
C380        C388   1.386       .  A
C380        C391   1.419   1_556  A
C381        C382   1.376       .  A
C381        H393   1.082       .  S
C382        H394   1.083       .  S
C383        C384   1.378       .  A
C383        H395   1.082       .  S
C384        H396   1.082       .  S
C385        C386   1.373       .  A
C385        H397   1.082       .  S
C386        H398   1.082       .  S
C387        C388   1.375       .  A
C387        H399   1.082       .  S
C388        H400   1.082       .  S
C389        C804   1.492       .  S
C390        C823   1.489       .  S
C391        C836   1.493       .  S
C392        C772   1.492       .  S
N403        C407   1.357       .  A
N403        C404   1.360       .  A
N403        C775   1.444       .  S
C404       C1367   1.473       .  S
C404        C405   1.384       .  A
C405        C406   1.370       .  A
C405        H408   1.082       .  S
C406        C407   1.380       .  A
C406        H409   1.082       .  S
C407        C759   1.467       .  S
N410        C414   1.356       .  A
N410        C411   1.358       .  A
N410        C740   1.437       .  S
C411       C1287   1.478       .  S
C411        C412   1.386       .  A
C412        C413   1.371       .  A
C412        H415   1.082       .  S
C413        C414   1.379       .  A
C413        H416   1.082       .  S
C414       C1351   1.471       .  S
N417        C421   1.356   1_565  A
N417        C418   1.354       .  A
N417        C724   1.440       .  S
C418       C1319   1.465       .  S
C418        C419   1.381       .  A
C419        C420   1.371   1_565  A
C419        H422   1.082       .  S
C420        C421   1.383       .  A
C420        H423   1.082       .  S
C421       C1079   1.468       .  S
N424        C428   1.355       .  A
N424        C425   1.357   1_545  A
N424        C711   1.440       .  S
C425       C1380   1.467       .  S
C425        C426   1.381       .  A
C426        C427   1.370   1_565  A
C426        H429   1.082       .  S
C427        C428   1.381       .  A
C427        H430   1.082       .  S
C428        C692   1.468       .  S
N431        C436   1.353       .  A
N431        C435   1.355       .  A
N431        H463   1.038       .  S
N432        C439   1.352       .  A
N432        C440   1.351       .  A
N433        C438   1.355       .  A
N433        C437   1.356       .  A
N433        H464   1.037       .  S
N434        C441   1.355       .  A
N434        C442   1.354       .  A
C435        C443   1.387       .  A
C435        C451   1.415       .  A
C436        C452   1.415   1_565  A
C436        C444   1.387       .  A
C437        C445   1.387       .  A
C437        C454   1.418   1_545  A
C438        C453   1.419       .  A
C438        C446   1.388       .  A
C439        C451   1.412       .  A
C439        C447   1.386       .  A
C440        C454   1.413       .  A
C440        C448   1.387       .  A
C441        C449   1.386       .  A
C441        C452   1.417       .  A
C442        C450   1.387       .  A
C442        C453   1.418       .  A
C443        C444   1.374       .  A
C443        H455   1.082       .  S
C444        H456   1.082       .  S
C445        C446   1.375       .  A
C445        H457   1.082       .  S
C446        H458   1.082       .  S
C447        C448   1.372       .  A
C447        H459   1.082       .  S
C448        H460   1.082       .  S
C449        C450   1.372       .  A
C449        H461   1.082       .  S
C450        H462   1.082       .  S
C451        C743   1.483       .  S
C452        C727   1.488       .  S
C453        C679   1.487       .  S
C454        C708   1.484       .  S
N465        C469   1.359       .  A
N465        C466   1.360       .  A
N465        C676   1.442       .  S
C466       C1111   1.472       .  S
C466        C467   1.381       .  A
C467        C468   1.368       .  A
C467        H470   1.082       .  S
C468        C469   1.382       .  A
C468        H471   1.082       .  S
C469        C660   1.474       .  S
N472        C476   1.357       .  A
N472        C473   1.359       .  A
N472        C644   1.442       .  S
C473       C1092   1.471       .  S
C473        C474   1.382       .  A
C474        C475   1.370       .  A
C474        H477   1.082       .  S
C475        C476   1.379       .  A
C475        H478   1.082       .  S
C476       C1031   1.467       .  S
N479        C483   1.359   1_455  A
N479        C480   1.363       .  A
N479        C631   1.436       .  S
C480        C855   1.489       .  S
C480        C481   1.386       .  A
C481        C482   1.372   1_455  A
C481        H484   1.082       .  S
C482        C483   1.378       .  A
C482        H485   1.082       .  S
C483       C1063   1.475       .  S
N486        C490   1.357   1_455  A
N486        C487   1.358       .  A
N486        C612   1.441       .  S
C487        C599   1.473       .  S
C487        C488   1.383       .  A
C488        C489   1.370   1_455  A
C488        H491   1.082       .  S
C489        C490   1.380       .  A
C489        H492   1.082       .  S
C490       C1127   1.468       .  S
N493        C498   1.355       .  A
N493        C497   1.356       .  A
N493        H525   1.039       .  S
N494        C501   1.353       .  A
N494        C502   1.352       .  A
N495        C500   1.355       .  A
N495        C499   1.355       .  A
N495        H526   1.039       .  S
N496        C503   1.354       .  A
N496        C504   1.355       .  A
C497        C505   1.386       .  A
C497        C513   1.418       .  A
C498        C514   1.418   1_455  A
C498        C506   1.387       .  A
C499        C507   1.386       .  A
C499        C516   1.416       .  A
C500        C515   1.418       .  A
C500        C508   1.388       .  A
C501        C513   1.414       .  A
C501        C509   1.386       .  A
C502        C516   1.413   1_455  A
C502        C510   1.386       .  A
C503        C511   1.386       .  A
C503        C514   1.415       .  A
C504        C512   1.387       .  A
C504        C515   1.418       .  A
C505        C506   1.377       .  A
C505        H517   1.082       .  S
C506        H518   1.082       .  S
C507        C508   1.377       .  A
C507        H519   1.082       .  S
C508        H520   1.082       .  S
C509        C510   1.373       .  A
C509        H521   1.082       .  S
C510        H522   1.082       .  S
C511        C512   1.373       .  A
C511        H523   1.082       .  S
C512        H524   1.082       .  S
C513        C580   1.490       .  S
C514        C615   1.487       .  S
C515        C647   1.492       .  S
C516        C628   1.484       .  S
N527        C531   1.365       .  A
N527        C528   1.362       .  A
N527        C583   1.444       .  S
C528        C564   1.478       .  S
C528        C529   1.382       .  A
C529        C530   1.365       .  A
C529        H532   1.082       .  S
C530        C531   1.382       .  A
C530        H533   1.083       .  S
C531        C871   1.478       .  S
Zn534       O538   1.955       .  S
Zn534       O539   1.995       .  S
Zn534       O543   2.002       .  S
Zn534       O550   2.014       .  S
Zn535       O538   1.955       .  S
Zn535       O540   2.015       .  S
Zn535       O542   2.033       .  S
Zn535       O546   2.038       .  S
Zn536       O538   1.962       .  S
Zn536       O541   2.025       .  S
Zn536       O544   2.018       .  S
Zn536       O547   2.022       .  S
Zn537       O538   1.950       .  S
Zn537       O545   2.022       .  S
Zn537       O548   2.017       .  S
Zn537       O549   2.007       .  S
O539        C551   1.270       .  A
O540        C552   1.274       .  A
O541        C553   1.274       .  A
O542        C551   1.275       .  A
O543        C553   1.273       .  A
O544        C552   1.273       .  A
O545        C554   1.274       .  A
O546        C555   1.276       .  A
O547        C554   1.275       .  A
O548        C555   1.272       .  A
O549        C556   1.273       .  A
O550        C556   1.273       .  A
C551        C695   1.471       .  S
C552        C596   1.471       .  S
C553        C567   1.470       .  S
C554        C756   1.473       .  S
C555        C791   1.477       .  S
C556        C663   1.469       .  S
C557        C562   1.386       .  A
C557        C558   1.406       .  A
C557        S563   1.715       .  A
C558        C559   1.407       .  A
C558        H569   1.083       .  S
C559        C568   1.373       .  A
C559        C560   1.387       .  A
C560        C561   1.395       .  A
C560        S566   1.701       .  A
C561        C562   1.398       .  A
C561        H570   1.083       .  S
C562        C565   1.362       .  A
S563        C564   1.725       .  A
C564        C565   1.385       .  A
C565        H571   1.083       .  S
S566        C567   1.720       .  A
C567        C568   1.389       .  A
C568        H572   1.083       .  S
C573        C578   1.387       .  A
C573        C574   1.402       .  A
C573        S579   1.709       .  A
C574        C575   1.403       .  A
C574        H585   1.083       .  S
C575        C584   1.373       .  A
C575        C576   1.386       .  A
C576        C577   1.406       .  A
C576        S582   1.712       .  A
C577        C578   1.407       .  A
C577        H586   1.083       .  S
C578        C581   1.376       .  A
S579        C580   1.722       .  A
C580        C581   1.390       .  A
C581        H587   1.083       .  S
S582        C583   1.725       .  A
C583        C584   1.388       .  A
C584        H588   1.083       .  S
C589        C594   1.387       .  A
C589        C590   1.397       .  A
C589        S595   1.703       .  A
C590        C591   1.399       .  A
C590        H601   1.083       .  S
C591        C600   1.365       .  A
C591        C592   1.386       .  A
C592        C593   1.404       .  A
C592        S598   1.712       .  A
C593        C594   1.406       .  A
C593        H602   1.083       .  S
C594        C597   1.373       .  A
S595        C596   1.721       .  A
C596        C597   1.389       .  A
C597        H603   1.083       .  S
S598        C599   1.724       .  A
C599        C600   1.384       .  A
C600        H604   1.083       .  S
C605        C610   1.388   1_455  A
C605        C606   1.402       .  A
C605        S611   1.708       .  A
C606        C607   1.403   1_455  A
C606        H617   1.083       .  S
C607        C616   1.372   1_655  A
C607        C608   1.387       .  A
C608        C609   1.406       .  A
C608        S614   1.713       .  A
C609        C610   1.406       .  A
C609        H618   1.083       .  S
C610        C613   1.375       .  A
S611        C612   1.722       .  A
C612        C613   1.389   1_455  A
C613        H619   1.083       .  S
S614        C615   1.725       .  A
C615        C616   1.386   1_655  A
C616        H620   1.083       .  S
C621        C626   1.387   1_455  A
C621        C622   1.406       .  A
C621        S627   1.712       .  A
C622        C623   1.406       .  A
C622        H633   1.083       .  S
C623        C632   1.376       .  A
C623        C624   1.388   1_455  A
C624        C625   1.401       .  A
C624        S630   1.706       .  A
C625        C626   1.401       .  A
C625        H634   1.083       .  S
C626        C629   1.371       .  A
S627        C628   1.724   1_455  A
C628        C629   1.384       .  A
C629        H635   1.083       .  S
S630        C631   1.719   1_655  A
C631        C632   1.387       .  A
C632        H636   1.082       .  S
C637        C642   1.387       .  A
C637        C638   1.405       .  A
C637        S643   1.711       .  A
C638        C639   1.405       .  A
C638        H649   1.083       .  S
C639        C648   1.375       .  A
C639        C640   1.387       .  A
C640        C641   1.402       .  A
C640        S646   1.707       .  A
C641        C642   1.403       .  A
C641        H650   1.083       .  S
C642        C645   1.371       .  A
S643        C644   1.726       .  A
C644        C645   1.386       .  A
C645        H651   1.081       .  S
S646        C647   1.725       .  A
C647        C648   1.390       .  A
C648        H652   1.083       .  S
C653        C658   1.386       .  A
C653        C654   1.404       .  A
C653        S659   1.710       .  A
C654        C655   1.405       .  A
C654        H665   1.083       .  S
C655        C664   1.372       .  A
C655        C656   1.387       .  A
C656        C657   1.396       .  A
C656        S662   1.701       .  A
C657        C658   1.398       .  A
C657        H666   1.083       .  S
C658        C661   1.364       .  A
S659        C660   1.724       .  A
C660        C661   1.384       .  A
C661        H667   1.083       .  S
S662        C663   1.720       .  A
C663        C664   1.389       .  A
C664        H668   1.083       .  S
C669        C674   1.387       .  A
C669        C670   1.403       .  A
C669        S675   1.707       .  A
C670        C671   1.403       .  A
C670        H681   1.083       .  S
C671        C680   1.372       .  A
C671        C672   1.387       .  A
C672        C673   1.403       .  A
C672        S678   1.709       .  A
C673        C674   1.403       .  A
C673        H682   1.083       .  S
C674        C677   1.373       .  A
S675        C676   1.726       .  A
C676        C677   1.387       .  A
C677        H683   1.082       .  S
S678        C679   1.724       .  A
C679        C680   1.387       .  A
C680        H684   1.083       .  S
C685        C690   1.387       .  A
C685        C686   1.404       .  A
C685        S691   1.712       .  A
C686        C687   1.406       .  A
C686        H697   1.083       .  S
C687        C696   1.370       .  A
C687        C688   1.387       .  A
C688        C689   1.395       .  A
C688        S694   1.704       .  A
C689        C690   1.397       .  A
C689        H698   1.083       .  S
C690        C693   1.362       .  A
S691        C692   1.724       .  A
C692        C693   1.380       .  A
C693        H699   1.083       .  S
S694        C695   1.719       .  A
C695        C696   1.390       .  A
C696        H700   1.083       .  S
C701        C706   1.387   1_565  A
C701        C702   1.403       .  A
C701        S707   1.708       .  A
C702        C703   1.403       .  A
C702        H713   1.083       .  S
C703        C712   1.374       .  A
C703        C704   1.387   1_565  A
C704        C705   1.401       .  A
C704        S710   1.704       .  A
C705        C706   1.401       .  A
C705        H714   1.083       .  S
C706        C709   1.371       .  A
S707        C708   1.724       .  A
C708        C709   1.385   1_565  A
C709        H715   1.083       .  S
S710        C711   1.724       .  A
C711        C712   1.387   1_545  A
C712        H716   1.082       .  S
C717        C722   1.387   1_545  A
C717        C718   1.405       .  A
C717        S723   1.712       .  A
C718        C719   1.406       .  A
C718        H729   1.083       .  S
C719        C728   1.375       .  A
C719        C720   1.387   1_545  A
C720        C721   1.401       .  A
C720        S726   1.705       .  A
C721        C722   1.401       .  A
C721        H730   1.083       .  S
C722        C725   1.370       .  A
S723        C724   1.725   1_545  A
C724        C725   1.385       .  A
C725        H731   1.083       .  S
S726        C727   1.724   1_565  A
C727        C728   1.389       .  A
C728        H732   1.083       .  S
C733        C738   1.388       .  A
C733        C734   1.400       .  A
C733        S739   1.704       .  A
C734        C735   1.400       .  A
C734        H745   1.083       .  S
C735        C744   1.370       .  A
C735        C736   1.387       .  A
C736        C737   1.404       .  A
C736        S742   1.710       .  A
C737        C738   1.405       .  A
C737        H746   1.083       .  S
C738        C741   1.374       .  A
S739        C740   1.721       .  A
C740        C741   1.387       .  A
C741        H747   1.083       .  S
S742        C743   1.723       .  A
C743        C744   1.384       .  A
C744        H748   1.083       .  S
C749        C754   1.387       .  A
C749        C750   1.399       .  A
C749        S755   1.705       .  A
C750        C751   1.400       .  A
C750        H761   1.083       .  S
C751        C760   1.366       .  A
C751        C752   1.387       .  A
C752        C753   1.404       .  A
C752        S758   1.711       .  A
C753        C754   1.405       .  A
C753        H762   1.083       .  S
C754        C757   1.373       .  A
S755        C756   1.722       .  A
C756        C757   1.389       .  A
C757        H763   1.083       .  S
S758        C759   1.721       .  A
C759        C760   1.383       .  A
C760        H764   1.083       .  S
C765        C770   1.387       .  A
C765        C766   1.402       .  A
C765        S771   1.708       .  A
C766        C767   1.402       .  A
C766        H777   1.083       .  S
C767        C776   1.372       .  A
C767        C768   1.387       .  A
C768        C769   1.407       .  A
C768        S774   1.713       .  A
C769        C770   1.407       .  A
C769        H778   1.083       .  S
C770        C773   1.377       .  A
S771        C772   1.724       .  A
C772        C773   1.390       .  A
C773        H779   1.083       .  S
S774        C775   1.728       .  A
C775        C776   1.387       .  A
C776        H780   1.082       .  S
C781        C786   1.387       .  A
C781        C782   1.401       .  A
C781        S787   1.699       .  A
C782        C783   1.400       .  A
C782        H793   1.083       .  S
C783        C792   1.373       .  A
C783        C784   1.387       .  A
C784        C785   1.407       .  A
C784        S790   1.709       .  A
C785        C786   1.406       .  A
C785        H794   1.083       .  S
C786        C789   1.378       .  A
S787        C788   1.723       .  A
C788        C789   1.388       .  A
C789        H795   1.083       .  S
S790        C791   1.727       .  A
C791        C792   1.386       .  A
C792        H796   1.083       .  S
C797        C802   1.387   1_554  A
C797        C798   1.404       .  A
C797        S803   1.707       .  A
C798        C799   1.403       .  A
C798        H809   1.083       .  S
C799        C808   1.377       .  A
C799        C800   1.386   1_554  A
C800        C801   1.406       .  A
C800        S806   1.708       .  A
C801        C802   1.406       .  A
C801        H810   1.083       .  S
C802        C805   1.378       .  A
S803        C804   1.724   1_554  A
C804        C805   1.390       .  A
C805        H811   1.083       .  S
S806        C807   1.727       .  A
C807        C808   1.388   1_556  A
C808        H812   1.082       .  S
C813        C818   1.388       .  A
C813        C814   1.400       .  A
C813        S819   1.706       .  A
C814        C815   1.401       .  A
C814        H825   1.083       .  S
C815        C824   1.371       .  A
C815        C816   1.387       .  A
C816        C817   1.408       .  A
C816        S822   1.716       .  A
C817        C818   1.409       .  A
C817        H826   1.083       .  S
C818        C821   1.378       .  A
S819        C820   1.720       .  A
C820        C821   1.390       .  A
C821        H827   1.083       .  S
S822        C823   1.726       .  A
C823        C824   1.385       .  A
C824        H828   1.083       .  S
C829        C834   1.387   1_556  A
C829        C830   1.405       .  A
C829        S835   1.712       .  A
C830        C831   1.405   1_556  A
C830        H841   1.083       .  S
C831        C840   1.376   1_554  A
C831        C832   1.387       .  A
C832        C833   1.407       .  A
C832        S838   1.713       .  A
C833        C834   1.407       .  A
C833        H842   1.083       .  S
C834        C837   1.378       .  A
S835        C836   1.724   1_556  A
C836        C837   1.390       .  A
C837        H843   1.083       .  S
S838        C839   1.725       .  A
C839        C840   1.388   1_554  A
C840        H844   1.083       .  S
C845        C850   1.386       .  A
C845        C846   1.404       .  A
C845        S851   1.711       .  A
C846        C847   1.405       .  A
C846        H857   1.083       .  S
C847        C856   1.371       .  A
C847        C848   1.385       .  A
C848        C849   1.408       .  A
C848        S854   1.717       .  A
C849        C850   1.409       .  A
C849        H858   1.083       .  S
C850        C853   1.379       .  A
S851        C852   1.726       .  A
C852        C853   1.393       .  A
C853        H859   1.083       .  S
S854        C855   1.726       .  A
C855        C856   1.392       .  A
C856        H860   1.083       .  S
C861        C866   1.387       .  A
C861        C862   1.399       .  A
C861        S867   1.704       .  A
C862        C863   1.401       .  A
C862        H873   1.083       .  S
C863        C872   1.367       .  A
C863        C864   1.385       .  A
C864        C865   1.405       .  A
C864        S870   1.713       .  A
C865        C866   1.407       .  A
C865        H874   1.083       .  S
C866        C869   1.375       .  A
S867        C868   1.722       .  A
C868        C869   1.390       .  A
C869        H875   1.083       .  S
S870        C871   1.725       .  A
C871        C872   1.388       .  A
C872        H876   1.084       .  S
C877        C882   1.387       .  A
C877        C878   1.402       .  A
C877        S883   1.705       .  A
C878        C879   1.403       .  A
C878        H889   1.083       .  S
C879        C888   1.372       .  A
C879        C880   1.387       .  A
C880        C881   1.400       .  A
C880        S886   1.704       .  A
C881        C882   1.400       .  A
C881        H890   1.083       .  S
C882        C885   1.369       .  A
S883        C884   1.721       .  A
C884        C885   1.382       .  A
C885        H891   1.083       .  S
S886        C887   1.723       .  A
C887        C888   1.387       .  A
C888        H892   1.083       .  S
C893        C898   1.387       .  A
C893        C894   1.399       .  A
C893        S899   1.702       .  A
C894        C895   1.399       .  A
C894        H905   1.083       .  S
C895        C904   1.367       .  A
C895        C896   1.387       .  A
C896        C897   1.401       .  A
C896        S902   1.707       .  A
C897        C898   1.402       .  A
C897        H906   1.083       .  S
C898        C901   1.369       .  A
S899        C900   1.722       .  A
C900        C901   1.385       .  A
C901        H907   1.083       .  S
S902        C903   1.724       .  A
C903        C904   1.383       .  A
C904        H908   1.083       .  S
C909        C914   1.388       .  A
C909        C910   1.397       .  A
C909        S915   1.701       .  A
C910        C911   1.399       .  A
C910        H921   1.083       .  S
C911        C920   1.367       .  A
C911        C912   1.386       .  A
C912        C913   1.406       .  A
C912        S918   1.713       .  A
C913        C914   1.406       .  A
C913        H922   1.083       .  S
C914        C917   1.373       .  A
S915        C916   1.718       .  A
C916        C917   1.386       .  A
C917        H923   1.083       .  S
S918        C919   1.727       .  A
C919        C920   1.386       .  A
C920        H924   1.083       .  S
C925        C930   1.387       .  A
C925        C926   1.402       .  A
C925        S931   1.708       .  A
C926        C927   1.403       .  A
C926        H937   1.083       .  S
C927        C936   1.372       .  A
C927        C928   1.387       .  A
C928        C929   1.402       .  A
C928        S934   1.707       .  A
C929        C930   1.403       .  A
C929        H938   1.083       .  S
C930        C933   1.372       .  A
S931        C932   1.724       .  A
C932        C933   1.387       .  A
C933        H939   1.083       .  S
S934        C935   1.725       .  A
C935        C936   1.388       .  A
C936        H940   1.082       .  S
C941        C946   1.388       .  A
C941        C942   1.398       .  A
C941        S947   1.698       .  A
C942        C943   1.397       .  A
C942        H953   1.083       .  S
C943        C952   1.368       .  A
C943        C944   1.387       .  A
C944        C945   1.404       .  A
C944        S950   1.706       .  A
C945        C946   1.404       .  A
C945        H954   1.083       .  S
C946        C949   1.374       .  A
S947        C948   1.719       .  A
C948        C949   1.386       .  A
C949        H955   1.083       .  S
S950        C951   1.726       .  A
C951        C952   1.384       .  A
C952        H956   1.083       .  S
C957        C962   1.388   1_545  A
C957        C958   1.401       .  A
C957        S963   1.704       .  A
C958        C959   1.401       .  A
C958        H969   1.083       .  S
C959        C968   1.371       .  A
C959        C960   1.388   1_545  A
C960        C961   1.403       .  A
C960        S966   1.707       .  A
C961        C962   1.404       .  A
C961        H970   1.083       .  S
C962        C965   1.375       .  A
S963        C964   1.724   1_545  A
C964        C965   1.386       .  A
C965        H971   1.082       .  S
S966        C967   1.721   1_565  A
C967        C968   1.384       .  A
C968        H972   1.083       .  S
C973        C978   1.386       .  A
C973        C974   1.403       .  A
C973        S979   1.708       .  A
C974        C975   1.404       .  A
C974        H985   1.083       .  S
C975        C984   1.373       .  A
C975        C976   1.386       .  A
C976        C977   1.404       .  A
C976        S982   1.709       .  A
C977        C978   1.404       .  A
C977        H986   1.083       .  S
C978        C981   1.373       .  A
S979        C980   1.727       .  A
C980        C981   1.388       .  A
C981        H987   1.082       .  S
S982        C983   1.727       .  A
C983        C984   1.390       .  A
C984        H988   1.083       .  S
C989        C994   1.387   1_565  A
C989        C990   1.403       .  A
C989        S995   1.709       .  A
C990        C991   1.404       .  A
C990       H1001   1.083       .  S
C991       C1000   1.371       .  A
C991        C992   1.388   1_565  A
C992        C993   1.401       .  A
C992        S998   1.708       .  A
C993        C994   1.402       .  A
C993       H1002   1.083       .  S
C994        C997   1.370       .  A
S995        C996   1.723       .  A
C996        C997   1.385   1_565  A
C997       H1003   1.083       .  S
S998        C999   1.722   1_545  A
C999       C1000   1.386       .  A
C1000      H1004   1.083       .  S
C1005      C1010   1.387       .  A
C1005      C1006   1.399       .  A
C1005      S1011   1.705       .  A
C1006      C1007   1.401       .  A
C1006      H1017   1.083       .  S
C1007      C1016   1.367       .  A
C1007      C1008   1.386       .  A
C1008      C1009   1.407       .  A
C1008      S1014   1.716       .  A
C1009      C1010   1.408       .  A
C1009      H1018   1.083       .  S
C1010      C1013   1.376       .  A
S1011      C1012   1.723       .  A
C1012      C1013   1.390       .  A
C1013      H1019   1.083       .  S
S1014      C1015   1.725       .  A
C1015      C1016   1.385       .  A
C1016      H1020   1.083       .  S
C1021      C1026   1.387       .  A
C1021      C1022   1.401       .  A
C1021      S1027   1.705       .  A
C1022      C1023   1.402       .  A
C1022      H1033   1.083       .  S
C1023      C1032   1.370       .  A
C1023      C1024   1.387       .  A
C1024      C1025   1.402       .  A
C1024      S1030   1.705       .  A
C1025      C1026   1.402       .  A
C1025      H1034   1.083       .  S
C1026      C1029   1.372       .  A
S1027      C1028   1.724       .  A
C1028      C1029   1.386       .  A
C1029      H1035   1.083       .  S
S1030      C1031   1.721       .  A
C1031      C1032   1.384       .  A
C1032      H1036   1.083       .  S
C1037      C1042   1.387       .  A
C1037      C1038   1.401       .  A
C1037      S1043   1.705       .  A
C1038      C1039   1.402       .  A
C1038      H1049   1.083       .  S
C1039      C1048   1.370       .  A
C1039      C1040   1.388       .  A
C1040      C1041   1.398       .  A
C1040      S1046   1.701       .  A
C1041      C1042   1.398       .  A
C1041      H1050   1.083       .  S
C1042      C1045   1.367       .  A
S1043      C1044   1.724       .  A
C1044      C1045   1.384       .  A
C1045      H1051   1.083       .  S
S1046      C1047   1.719       .  A
C1047      C1048   1.384       .  A
C1048      H1052   1.083       .  S
C1053      C1058   1.387       .  A
C1053      C1054   1.404       .  A
C1053      S1059   1.706       .  A
C1054      C1055   1.405       .  A
C1054      H1065   1.083       .  S
C1055      C1064   1.376       .  A
C1055      C1056   1.387       .  A
C1056      C1057   1.403       .  A
C1056      S1062   1.706       .  A
C1057      C1058   1.402       .  A
C1057      H1066   1.083       .  S
C1058      C1061   1.373       .  A
S1059      C1060   1.726       .  A
C1060      C1061   1.386       .  A
C1061      H1067   1.083       .  S
S1062      C1063   1.722       .  A
C1063      C1064   1.388       .  A
C1064      H1068   1.083       .  S
C1069      C1074   1.387       .  A
C1069      C1070   1.395       .  A
C1069      S1075   1.703       .  A
C1070      C1071   1.397       .  A
C1070      H1081   1.083       .  S
C1071      C1080   1.361       .  A
C1071      C1072   1.387       .  A
C1072      C1073   1.403       .  A
C1072      S1078   1.711       .  A
C1073      C1074   1.405       .  A
C1073      H1082   1.083       .  S
C1074      C1077   1.369       .  A
S1075      C1076   1.719       .  A
C1076      C1077   1.388       .  A
C1077      H1083   1.083       .  S
S1078      C1079   1.723       .  A
C1079      C1080   1.381       .  A
C1080      H1084   1.083       .  S
C1085      C1090   1.388       .  A
C1085      C1086   1.399       .  A
C1085      S1091   1.700       .  A
C1086      C1087   1.399       .  A
C1086      H1097   1.083       .  S
C1087      C1096   1.369       .  A
C1087      C1088   1.387       .  A
C1088      C1089   1.403       .  A
C1088      S1094   1.707       .  A
C1089      C1090   1.403       .  A
C1089      H1098   1.083       .  S
C1090      C1093   1.373       .  A
S1091      C1092   1.721       .  A
C1092      C1093   1.386       .  A
C1093      H1099   1.083       .  S
S1094      C1095   1.725       .  A
C1095      C1096   1.385       .  A
C1096      H1100   1.083       .  S
C1101      C1106   1.387       .  A
C1101      C1102   1.403       .  A
C1101      S1107   1.705       .  A
C1102      C1103   1.402       .  A
C1102      H1113   1.083       .  S
C1103      C1112   1.373       .  A
C1103      C1104   1.388       .  A
C1104      C1105   1.400       .  A
C1104      S1110   1.699       .  A
C1105      C1106   1.399       .  A
C1105      H1114   1.083       .  S
C1106      C1109   1.370       .  A
S1107      C1108   1.725       .  A
C1108      C1109   1.385       .  A
C1109      H1115   1.083       .  S
S1110      C1111   1.723       .  A
C1111      C1112   1.385       .  A
C1112      H1116   1.083       .  S
C1117      C1122   1.387       .  A
C1117      C1118   1.403       .  A
C1117      S1123   1.705       .  A
C1118      C1119   1.403       .  A
C1118      H1129   1.083       .  S
C1119      C1128   1.373       .  A
C1119      C1120   1.388       .  A
C1120      C1121   1.400       .  A
C1120      S1126   1.700       .  A
C1121      C1122   1.400       .  A
C1121      H1130   1.083       .  S
C1122      C1125   1.371       .  A
S1123      C1124   1.726       .  A
C1124      C1125   1.386       .  A
C1125      H1131   1.083       .  S
S1126      C1127   1.721       .  A
C1127      C1128   1.385       .  A
C1128      H1132   1.083       .  S
C1133      C1138   1.387       .  A
C1133      C1134   1.402       .  A
C1133      S1139   1.711       .  A
C1134      C1135   1.404       .  A
C1134      H1145   1.083       .  S
C1135      C1144   1.371       .  A
C1135      C1136   1.387       .  A
C1136      C1137   1.401       .  A
C1136      S1142   1.709       .  A
C1137      C1138   1.403       .  A
C1137      H1146   1.083       .  S
C1138      C1141   1.368       .  A
S1139      C1140   1.720       .  A
C1140      C1141   1.386       .  A
C1141      H1147   1.083       .  S
S1142      C1143   1.724       .  A
C1143      C1144   1.388       .  A
C1144      H1148   1.083       .  S
C1149      C1154   1.387       .  A
C1149      C1150   1.405       .  A
C1149      S1155   1.713       .  A
C1150      C1151   1.405       .  A
C1150      H1161   1.083       .  S
C1151      C1160   1.373       .  A
C1151      C1152   1.388       .  A
C1152      C1153   1.401       .  A
C1152      S1158   1.707       .  A
C1153      C1154   1.402       .  A
C1153      H1162   1.083       .  S
C1154      C1157   1.370       .  A
S1155      C1156   1.724       .  A
C1156      C1157   1.385       .  A
C1157      H1163   1.083       .  S
S1158      C1159   1.723       .  A
C1159      C1160   1.387       .  A
C1160      H1164   1.082       .  S
C1165      C1170   1.387       .  A
C1165      C1166   1.398       .  A
C1165      S1171   1.705       .  A
C1166      C1167   1.400       .  A
C1166      H1177   1.083       .  S
C1167      C1176   1.364       .  A
C1167      C1168   1.388       .  A
C1168      C1169   1.401       .  A
C1168      S1174   1.710       .  A
C1169      C1170   1.403       .  A
C1169      H1178   1.083       .  S
C1170      C1173   1.367       .  A
S1171      C1172   1.722       .  A
C1172      C1173   1.386       .  A
C1173      H1179   1.083       .  S
S1174      C1175   1.720       .  A
C1175      C1176   1.381       .  A
C1176      H1180   1.083       .  S
C1181      C1186   1.387       .  A
C1181      C1182   1.399       .  A
C1181      S1187   1.704       .  A
C1182      C1183   1.399       .  A
C1182      H1193   1.083       .  S
C1183      C1192   1.368       .  A
C1183      C1184   1.388       .  A
C1184      C1185   1.404       .  A
C1184      S1190   1.709       .  A
C1185      C1186   1.405       .  A
C1185      H1194   1.083       .  S
C1186      C1189   1.374       .  A
S1187      C1188   1.720       .  A
C1188      C1189   1.388       .  A
C1189      H1195   1.083       .  S
S1190      C1191   1.721       .  A
C1191      C1192   1.381       .  A
C1192      H1196   1.083       .  S
C1197      C1202   1.387   1_554  A
C1197      C1198   1.403       .  A
C1197      S1203   1.710       .  A
C1198      C1199   1.404       .  A
C1198      H1209   1.083       .  S
C1199      C1208   1.374       .  A
C1199      C1200   1.387   1_554  A
C1200      C1201   1.403       .  A
C1200      S1206   1.707       .  A
C1201      C1202   1.403       .  A
C1201      H1210   1.083       .  S
C1202      C1205   1.371       .  A
S1203      C1204   1.723   1_554  A
C1204      C1205   1.386       .  A
C1205      H1211   1.083       .  S
S1206      C1207   1.725       .  A
C1207      C1208   1.388   1_556  A
C1208      H1212   1.083       .  S
C1213      C1218   1.386       .  A
C1213      C1214   1.406       .  A
C1213      S1219   1.713       .  A
C1214      C1215   1.407       .  A
C1214      H1225   1.083       .  S
C1215      C1224   1.375       .  A
C1215      C1216   1.387       .  A
C1216      C1217   1.399       .  A
C1216      S1222   1.705       .  A
C1217      C1218   1.401       .  A
C1217      H1226   1.083       .  S
C1218      C1221   1.367       .  A
S1219      C1220   1.724       .  A
C1220      C1221   1.385       .  A
C1221      H1227   1.083       .  S
S1222      C1223   1.723       .  A
C1223      C1224   1.390       .  A
C1224      H1228   1.083       .  S
C1229      C1234   1.388       .  A
C1229      C1230   1.405       .  A
C1229      S1235   1.712       .  A
C1230      C1231   1.406       .  A
C1230      H1241   1.083       .  S
C1231      C1240   1.377       .  A
C1231      C1232   1.387       .  A
C1232      C1233   1.403       .  A
C1232      S1238   1.708       .  A
C1233      C1234   1.403       .  A
C1233      H1242   1.083       .  S
C1234      C1237   1.373       .  A
S1235      C1236   1.721       .  A
C1236      C1237   1.384       .  A
C1237      H1243   1.083       .  S
S1238      C1239   1.723       .  A
C1239      C1240   1.389       .  A
C1240      H1244   1.083       .  S
C1245      C1250   1.387   1_554  A
C1245      C1246   1.402       .  A
C1245      S1251   1.708       .  A
C1246      C1247   1.403       .  A
C1246      H1257   1.083       .  S
C1247      C1256   1.373       .  A
C1247      C1248   1.387   1_554  A
C1248      C1249   1.404       .  A
C1248      S1254   1.709       .  A
C1249      C1250   1.404       .  A
C1249      H1258   1.083       .  S
C1250      C1253   1.373       .  A
S1251      C1252   1.722       .  A
C1252      C1253   1.387   1_554  A
C1253      H1259   1.081       .  S
S1254      C1255   1.723   1_556  A
C1255      C1256   1.385       .  A
C1256      H1260   1.083       .  S
C1261      C1266   1.387       .  A
C1261      C1262   1.404       .  A
C1261      S1267   1.709       .  A
C1262      C1263   1.404       .  A
C1262      H1273   1.083       .  S
C1263      C1272   1.375       .  A
C1263      C1264   1.388       .  A
C1264      C1265   1.401       .  A
C1264      S1270   1.702       .  A
C1265      C1266   1.401       .  A
C1265      H1274   1.083       .  S
C1266      C1269   1.371       .  A
S1267      C1268   1.726       .  A
C1268      C1269   1.386       .  A
C1269      H1275   1.083       .  S
S1270      C1271   1.722       .  A
C1271      C1272   1.385       .  A
C1272      H1276   1.083       .  S
C1277      C1282   1.387       .  A
C1277      C1278   1.395       .  A
C1277      S1283   1.699       .  A
C1278      C1279   1.397       .  A
C1278      H1289   1.083       .  S
C1279      C1288   1.363       .  A
C1279      C1280   1.385       .  A
C1280      C1281   1.406       .  A
C1280      S1286   1.714       .  A
C1281      C1282   1.408       .  A
C1281      H1290   1.083       .  S
C1282      C1285   1.375       .  A
S1283      C1284   1.720       .  A
C1284      C1285   1.390       .  A
C1285      H1291   1.083       .  S
S1286      C1287   1.727       .  A
C1287      C1288   1.384       .  A
C1288      H1292   1.083       .  S
C1293      C1298   1.386       .  A
C1293      C1294   1.404       .  A
C1293      S1299   1.712       .  A
C1294      C1295   1.406       .  A
C1294      H1305   1.083       .  S
C1295      C1304   1.371       .  A
C1295      C1296   1.387       .  A
C1296      C1297   1.396       .  A
C1296      S1302   1.702       .  A
C1297      C1298   1.398       .  A
C1297      H1306   1.083       .  S
C1298      C1301   1.363       .  A
S1299      C1300   1.725       .  A
C1300      C1301   1.383       .  A
C1301      H1307   1.083       .  S
S1302      C1303   1.720       .  A
C1303      C1304   1.389       .  A
C1304      H1308   1.083       .  S
C1309      C1314   1.388       .  A
C1309      C1310   1.395       .  A
C1309      S1315   1.698       .  A
C1310      C1311   1.396       .  A
C1310      H1321   1.083       .  S
C1311      C1320   1.363       .  A
C1311      C1312   1.387       .  A
C1312      C1313   1.403       .  A
C1312      S1318   1.709       .  A
C1313      C1314   1.404       .  A
C1313      H1322   1.083       .  S
C1314      C1317   1.373       .  A
S1315      C1316   1.721       .  A
C1316      C1317   1.388       .  A
C1317      H1323   1.083       .  S
S1318      C1319   1.722       .  A
C1319      C1320   1.380       .  A
C1320      H1324   1.083       .  S
C1325      C1330   1.387       .  A
C1325      C1326   1.405       .  A
C1325      S1331   1.708       .  A
C1326      C1327   1.404       .  A
C1326      H1337   1.083       .  S
C1327      C1336   1.375       .  A
C1327      C1328   1.387       .  A
C1328      C1329   1.399       .  A
C1328      S1334   1.700       .  A
C1329      C1330   1.399       .  A
C1329      H1338   1.083       .  S
C1330      C1333   1.371       .  A
S1331      C1332   1.727       .  A
C1332      C1333   1.385       .  A
C1333      H1339   1.083       .  S
S1334      C1335   1.722       .  A
C1335      C1336   1.387       .  A
C1336      H1340   1.083       .  S
C1341      C1346   1.387       .  A
C1341      C1342   1.399       .  A
C1341      S1347   1.705       .  A
C1342      C1343   1.401       .  A
C1342      H1353   1.083       .  S
C1343      C1352   1.366       .  A
C1343      C1344   1.387       .  A
C1344      C1345   1.401       .  A
C1344      S1350   1.710       .  A
C1345      C1346   1.403       .  A
C1345      H1354   1.083       .  S
C1346      C1349   1.370       .  A
S1347      C1348   1.724       .  A
C1348      C1349   1.385       .  A
C1349      H1355   1.083       .  S
S1350      C1351   1.721       .  A
C1351      C1352   1.384       .  A
C1352      H1356   1.083       .  S
C1357      C1362   1.387       .  A
C1357      C1358   1.399       .  A
C1357      S1363   1.704       .  A
C1358      C1359   1.401       .  A
C1358      H1369   1.083       .  S
C1359      C1368   1.366       .  A
C1359      C1360   1.386       .  A
C1360      C1361   1.400       .  A
C1360      S1366   1.707       .  A
C1361      C1362   1.402       .  A
C1361      H1370   1.083       .  S
C1362      C1365   1.369       .  A
S1363      C1364   1.723       .  A
C1364      C1365   1.386       .  A
C1365      H1371   1.083       .  S
S1366      C1367   1.722       .  A
C1367      C1368   1.386       .  A
C1368      H1372   1.083       .  S
C1373      C1378   1.387       .  A
C1373      C1374   1.399       .  A
C1373      S1379   1.701       .  A
C1374      C1375   1.399       .  A
C1374      H1385   1.083       .  S
C1375      C1384   1.370       .  A
C1375      C1376   1.387       .  A
C1376      C1377   1.404       .  A
C1376      S1382   1.708       .  A
C1377      C1378   1.404       .  A
C1377      H1386   1.083       .  S
C1378      C1381   1.374       .  A
S1379      C1380   1.720       .  A
C1380      C1381   1.386       .  A
C1381      H1387   1.083       .  S
S1382      C1383   1.726       .  A
C1383      C1384   1.385       .  A
C1384      H1388   1.083       .  S
C1389      C1394   1.387       .  A
C1389      C1390   1.405       .  A
C1389      S1395   1.712       .  A
C1390      C1391   1.406       .  A
C1390      H1401   1.083       .  S
C1391      C1400   1.373       .  A
C1391      C1392   1.388       .  A
C1392      C1393   1.392       .  A
C1392      S1398   1.695       .  A
C1393      C1394   1.393       .  A
C1393      H1402   1.083       .  S
C1394      C1397   1.358       .  A
S1395      C1396   1.724       .  A
C1396      C1397   1.378       .  A
C1397      H1403   1.084       .  S
S1398      C1399   1.720       .  A
C1399      C1400   1.388       .  A
C1400      H1404   1.083       .  S
C1405      C1410   1.387       .  A
C1405      C1406   1.405       .  A
C1405      S1411   1.709       .  A
C1406      C1407   1.405       .  A
C1406      H1417   1.083       .  S
C1407      C1416   1.375       .  A
C1407      C1408   1.388       .  A
C1408      C1409   1.400       .  A
C1408      S1414   1.704       .  A
C1409      C1410   1.401       .  A
C1409      H1418   1.083       .  S
C1410      C1413   1.371       .  A
S1411      C1412   1.723       .  A
C1412      C1413   1.385       .  A
C1413      H1419   1.083       .  S
S1414      C1415   1.721       .  A
C1415      C1416   1.387       .  A
C1416      H1420   1.083       .  S
C1421      C1426   1.386       .  A
C1421      C1422   1.406       .  A
C1421      S1427   1.713       .  A
C1422      C1423   1.407       .  A
C1422      H1433   1.083       .  S
C1423      C1432   1.374       .  A
C1423      C1424   1.387       .  A
C1424      C1425   1.395       .  A
C1424      S1430   1.699       .  A
C1425      C1426   1.396       .  A
C1425      H1434   1.083       .  S
C1426      C1429   1.363       .  A
S1427      C1428   1.725       .  A
C1428      C1429   1.382       .  A
C1429      H1435   1.083       .  S
S1430      C1431   1.719       .  A
C1431      C1432   1.390       .  A
C1432      H1436   1.083       .  S
C1437      C1442   1.387       .  A
C1437      C1438   1.398       .  A
C1437      S1443   1.706       .  A
C1438      C1439   1.400       .  A
C1438      H1449   1.083       .  S
C1439      C1448   1.365       .  A
C1439      C1440   1.387       .  A
C1440      C1441   1.402       .  A
C1440      S1446   1.710       .  A
C1441      C1442   1.403       .  A
C1441      H1450   1.083       .  S
C1442      C1445   1.368       .  A
S1443      C1444   1.722       .  A
C1444      C1445   1.387       .  A
C1445      H1451   1.083       .  S
S1446      C1447   1.722       .  A
C1447      C1448   1.384       .  A
C1448      H1452   1.083       .  S
C1453      C1458   1.387   1_655  A
C1453      C1454   1.398       .  A
C1453      S1459   1.703       .  A
C1454      C1455   1.399       .  A
C1454      H1465   1.083       .  S
C1455      C1464   1.368       .  A
C1455      C1456   1.387   1_655  A
C1456      C1457   1.404       .  A
C1456      S1462   1.709       .  A
C1457      C1458   1.405       .  A
C1457      H1466   1.083       .  S
C1458      C1461   1.373       .  A
S1459      C1460   1.722   1_655  A
C1460      C1461   1.389       .  A
C1461      H1467   1.082       .  S
S1462      C1463   1.727       .  A
C1463      C1464   1.383   1_455  A
C1464      H1468   1.083       .  S
C1469      C1474   1.387       .  A
C1469      C1470   1.402       .  A
C1469      S1475   1.707       .  A
C1470      C1471   1.402       .  A
C1470      H1481   1.083       .  S
C1471      C1480   1.372       .  A
C1471      C1472   1.387   1_655  A
C1472      C1473   1.406       .  A
C1472      S1478   1.711       .  A
C1473      C1474   1.406   1_455  A
C1473      H1482   1.083       .  S
C1474      C1477   1.376   1_655  A
S1475      C1476   1.724       .  A
C1476      C1477   1.390   1_655  A
C1477      H1483   1.082       .  S
S1478      C1479   1.727   1_455  A
C1479      C1480   1.386       .  A
C1480      H1484   1.083       .  S
C1485      C1490   1.387       .  A
C1485      C1486   1.398       .  A
C1485      S1491   1.696       .  A
C1486      C1487   1.397       .  A
C1486      H1497   1.083       .  S
C1487      C1496   1.370       .  A
C1487      C1488   1.387       .  A
C1488      C1489   1.407       .  A
C1488      S1494   1.709       .  A
C1489      C1490   1.406       .  A
C1489      H1498   1.083       .  S
C1490      C1493   1.378       .  A
S1491      C1492   1.721       .  A
C1492      C1493   1.388       .  A
C1493      H1499   1.083       .  S
S1494      C1495   1.728       .  A
C1495      C1496   1.384       .  A
C1496      H1500   1.083       .  S
C1501      C1506   1.387       .  A
C1501      C1502   1.402       .  A
C1501      S1507   1.703       .  A
C1502      C1503   1.401       .  A
C1502      H1513   1.083       .  S
C1503      C1512   1.372       .  A
C1503      C1504   1.387       .  A
C1504      C1505   1.406       .  A
C1504      S1510   1.710       .  A
C1505      C1506   1.405       .  A
C1505      H1514   1.083       .  S
C1506      C1509   1.377       .  A
S1507      C1508   1.722       .  A
C1508      C1509   1.389       .  A
C1509      H1515   1.082       .  S
S1510      C1511   1.724       .  A
C1511      C1512   1.386       .  A
C1512      H1516   1.083       .  S
C1517      C1522   1.387       .  A
C1517      C1518   1.400       .  A
C1517      S1523   1.701       .  A
C1518      C1519   1.400       .  A
C1518      H1529   1.083       .  S
C1519      C1528   1.372       .  A
C1519      C1520   1.387       .  A
C1520      C1521   1.405       .  A
C1520      S1526   1.709       .  A
C1521      C1522   1.405       .  A
C1521      H1530   1.083       .  S
C1522      C1525   1.376       .  A
S1523      C1524   1.720       .  A
C1524      C1525   1.386       .  A
C1525      H1531   1.083       .  S
S1526      C1527   1.726       .  A
C1527      C1528   1.386       .  A
C1528      H1532   1.083       .  S
C1533      C1538   1.386       .  A
C1533      C1534   1.404       .  A
C1533      S1539   1.714       .  A
C1534      C1535   1.406       .  A
C1534      H1545   1.083       .  S
C1535      C1544   1.371       .  A
C1535      C1536   1.387       .  A
C1536      C1537   1.394       .  A
C1536      S1542   1.701       .  A
C1537      C1538   1.396       .  A
C1537      H1546   1.083       .  S
C1538      C1541   1.359       .  A
S1539      C1540   1.724       .  A
C1540      C1541   1.381       .  A
C1541      H1547   1.084       .  S
S1542      C1543   1.719       .  A
C1543      C1544   1.389       .  A
C1544      H1548   1.083       .  S
C1549      C1554   1.387       .  A
C1549      C1550   1.402       .  A
C1549      S1555   1.705       .  A
C1550      C1551   1.402       .  A
C1550      H1561   1.083       .  S
C1551      C1560   1.371       .  A
C1551      C1552   1.387       .  A
C1552      C1553   1.400       .  A
C1552      S1558   1.703       .  A
C1553      C1554   1.400       .  A
C1553      H1562   1.083       .  S
C1554      C1557   1.371       .  A
S1555      C1556   1.725       .  A
C1556      C1557   1.384       .  A
C1557      H1563   1.083       .  S
S1558      C1559   1.719       .  A
C1559      C1560   1.385       .  A
C1560      H1564   1.083       .  S
C1565      C1570   1.388       .  A
C1565      C1566   1.394       .  A
C1565      S1571   1.698       .  A
C1566      C1567   1.396       .  A
C1566      H1577   1.083       .  S
C1567      C1576   1.360       .  A
C1567      C1568   1.386       .  A
C1568      C1569   1.403       .  A
C1568      S1574   1.711       .  A
C1569      C1570   1.404       .  A
C1569      H1578   1.083       .  S
C1570      C1573   1.370       .  A
S1571      C1572   1.721       .  A
C1572      C1573   1.386       .  A
C1573      H1579   1.083       .  S
S1574      C1575   1.723       .  A
C1575      C1576   1.382       .  A
C1576      H1580   1.084       .  S
C1581      C1586   1.387       .  A
C1581      C1582   1.401       .  A
C1581      S1587   1.704       .  A
C1582      C1583   1.401       .  A
C1582      H1593   1.083       .  S
C1583      C1592   1.370       .  A
C1583      C1584   1.388       .  A
C1584      C1585   1.400       .  A
C1584      S1590   1.701       .  A
C1585      C1586   1.400       .  A
C1585      H1594   1.083       .  S
C1586      C1589   1.370       .  A
S1587      C1588   1.724       .  A
C1588      C1589   1.386       .  A
C1589      H1595   1.083       .  S
S1590      C1591   1.723       .  A
C1591      C1592   1.384       .  A
C1592      H1596   1.083       .  S
C1597      C1602   1.387       .  A
C1597      C1598   1.396       .  A
C1597      S1603   1.703       .  A
C1598      C1599   1.398       .  A
C1598      H1609   1.083       .  S
C1599      C1608   1.363       .  A
C1599      C1600   1.385       .  A
C1600      C1601   1.406       .  A
C1600      S1606   1.716       .  A
C1601      C1602   1.408       .  A
C1601      H1610   1.083       .  S
C1602      C1605   1.373       .  A
S1603      C1604   1.719       .  A
C1604      C1605   1.391       .  A
C1605      H1611   1.083       .  S
S1606      C1607   1.725       .  A
C1607      C1608   1.386       .  A
C1608      H1612   1.084       .  S
C1613      C1618   1.387       .  A
C1613      C1614   1.402       .  A
C1613      S1619   1.706       .  A
C1614      C1615   1.402       .  A
C1614      H1625   1.083       .  S
C1615      C1624   1.370       .  A
C1615      C1616   1.388       .  A
C1616      C1617   1.397       .  A
C1616      S1622   1.699       .  A
C1617      C1618   1.397       .  A
C1617      H1626   1.083       .  S
C1618      C1621   1.365       .  A
S1619      C1620   1.724       .  A
C1620      C1621   1.383       .  A
C1621      H1627   1.083       .  S
S1622      C1623   1.719       .  A
C1623      C1624   1.384       .  A
C1624      H1628   1.083       .  S
C1629      C1634   1.386       .  A
C1629      C1630   1.405       .  A
C1629      S1635   1.709       .  A
C1630      C1631   1.405       .  A
C1630      H1641   1.083       .  S
C1631      C1640   1.375       .  A
C1631      C1632   1.387       .  A
C1632      C1633   1.402       .  A
C1632      S1638   1.705       .  A
C1633      C1634   1.402       .  A
C1633      H1642   1.083       .  S
C1634      C1637   1.373       .  A
S1635      C1636   1.726       .  A
C1636      C1637   1.388       .  A
C1637      H1643   1.083       .  S
S1638      C1639   1.721       .  A
C1639      C1640   1.386       .  A
C1640      H1644   1.083       .  S
C1645      C1650   1.386       .  A
C1645      C1646   1.398       .  A
C1645      S1651   1.703       .  A
C1646      C1647   1.399       .  A
C1646      H1657   1.083       .  S
C1647      C1656   1.365       .  A
C1647      C1648   1.387       .  A
C1648      C1649   1.399       .  A
C1648      S1654   1.704       .  A
C1649      C1650   1.401       .  A
C1649      H1658   1.083       .  S
C1650      C1653   1.365       .  A
S1651      C1652   1.720       .  A
C1652      C1653   1.386       .  A
C1653      H1659   1.084       .  S
S1654      C1655   1.722       .  A
C1655      C1656   1.383       .  A
C1656      H1660   1.083       .  S
C1661      C1666   1.386       .  A
C1661      C1662   1.403       .  A
C1661      S1667   1.711       .  A
C1662      C1663   1.404       .  A
C1662      H1673   1.083       .  S
C1663      C1672   1.369       .  A
C1663      C1664   1.387       .  A
C1664      C1665   1.397       .  A
C1664      S1670   1.704       .  A
C1665      C1666   1.400       .  A
C1665      H1674   1.083       .  S
C1666      C1669   1.364       .  A
S1667      C1668   1.723       .  A
C1668      C1669   1.384       .  A
C1669      H1675   1.083       .  S
S1670      C1671   1.721       .  A
C1671      C1672   1.387       .  A
C1672      H1676   1.083       .  S
C1677      C1682   1.387       .  A
C1677      C1678   1.397       .  A
C1677      S1683   1.704       .  A
C1678      C1679   1.400       .  A
C1678      H1689   1.083       .  S
C1679      C1688   1.365       .  A
C1679      C1680   1.386       .  A
C1680      C1681   1.406       .  A
C1680      S1686   1.716       .  A
C1681      C1682   1.408       .  A
C1681      H1690   1.083       .  S
C1682      C1685   1.374       .  A
S1683      C1684   1.721       .  A
C1684      C1685   1.390       .  A
C1685      H1691   1.083       .  S
S1686      C1687   1.727       .  A
C1687      C1688   1.386       .  A
C1688      H1692   1.083       .  S
C1693      C1698   1.387       .  A
C1693      C1694   1.400       .  A
C1693      S1699   1.705       .  A
C1694      C1695   1.401       .  A
C1694      H1705   1.083       .  S
C1695      C1704   1.369       .  A
C1695      C1696   1.387       .  A
C1696      C1697   1.400       .  A
C1696      S1702   1.703       .  A
C1697      C1698   1.401       .  A
C1697      H1706   1.083       .  S
C1698      C1701   1.368       .  A
S1699      C1700   1.722       .  A
C1700      C1701   1.385       .  A
C1701      H1707   1.083       .  S
S1702      C1703   1.721       .  A
C1703      C1704   1.383       .  A
C1704      H1708   1.083       .  S
