geometry optimzed in LAMMPS
_audit_creation_date              2020-11-30 
_audit_creation_method            'lammps2cif' 
_symmetry_space_group_name_H-M    'P1' 
_symmetry_Int_Tables_number       1 
_symmetry_cell_setting            triclinic 
loop_ 
_symmetry_equiv_pos_as_xyz 
  x,y,z 
_cell_length_a                    39.0283639 
_cell_length_b                    39.03033473676547 
_cell_length_c                    95.43922857349014 
_cell_angle_alpha                 90.0755413823667 
_cell_angle_beta                  89.96526927766399 
_cell_angle_gamma                 120.02456520083068 
loop_ 
_atom_site_label 
_atom_site_type_symbol 
_atom_site_fract_x 
_atom_site_fract_y 
_atom_site_fract_z 
_atom_site_charge 
O1          O  0.09278852  0.30220855  0.32925368    -0.88500
C2          C  0.18482241  0.36939400  0.30291221     0.87500
Mg3        Mg  0.08535471  0.32398479  0.34897035     1.58100
O4          O  0.19431223  0.29666587  0.32148696    -0.88300
O5          O  0.10024794  0.25362876  0.32141667    -0.75600
C6          C  0.26104779  0.40645707  0.38010196     0.92600
O7          O  0.13684569  0.39623834  0.32446536    -0.75400
O8          O  0.23043600  0.40999227  0.37916511    -0.82900
Mg9        Mg  0.10288314  0.33960510  0.31130799     1.58000
C10         C  0.30253046  0.32699046  0.34008326     0.92500
O11         O  0.06741760  0.28785481  0.29605468    -0.81200
H12         H  0.17463546  0.24000457  0.32630825    -0.06500
C13         C  0.25346365  0.40773643  0.33842402     0.87400
O14         O  0.11509806  0.29421703  0.36062298    -0.75700
O15         O  0.15637206  0.33824181  0.30717505    -0.88400
O16         O  0.28724152  0.32637550  0.32821386    -0.81200
C17         C  0.23478783  0.31077311  0.28685791     0.92600
C18         C  0.07390697  0.26664374  0.28746723     0.92500
Mg19       Mg  0.23279473  0.33469773  0.35577516     1.58000
O20         O  0.26801229  0.38612409  0.37126247    -0.81200
O21         O  0.19944049  0.27802190  0.34260699    -0.75400
O22         O  0.19778753  0.29831050  0.28789654    -0.81300
O23         O  0.04655348  0.34193875  0.31565498    -0.83000
O24         O  0.13750011  0.37395903  0.37903047    -0.81300
C25         C  0.18919582  0.27038124  0.32984876     0.86900
O26         O  0.17898738  0.33533383  0.35983930    -0.88400
O27         O  0.24246224  0.37208288  0.33781450    -0.88500
O28         O  0.23559593  0.42068940  0.34596968    -0.75600
Mg29       Mg  0.15074165  0.28047705  0.30532368     1.58000
O30         O  0.25829878  0.32757671  0.29708358    -0.83000
H31         H  0.05746541  0.24615246  0.33520506    -0.06700
O32         O  0.14137841  0.37736653  0.34562772    -0.88200
H33         H  0.16195904  0.43416365  0.34077019    -0.06500
H34         H  0.15557270  0.28389469  0.37011112    -0.06700
C35         C  0.14700115  0.40377116  0.33723841     0.86900
C36         C  0.08210535  0.26660709  0.32879843     0.87500
C37         C  0.15037178  0.30400302  0.36391502     0.87500
H38         H  0.27821267  0.42826719  0.33207642    -0.06700
O39         O  0.22014984  0.37951705  0.30622450    -0.75700
Mg40       Mg  0.18470173  0.39301701  0.36190709     1.58000
H41         H  0.17941458  0.38909938  0.29655832    -0.06700
C42         C  0.03310058  0.34808193  0.32697346     0.92500
O43         O  0.07685735  0.34597939  0.37000558    -0.82900
C44         C  0.10066621  0.36188239  0.38021120     0.92500
O45         O  0.10441429  0.26293534  0.28841249    -0.82900
Mg46       Mg  0.24994005  0.35016597  0.31805347     1.58200
O47         O  0.04802584  0.34814276  0.33887312    -0.81200
O48         O  0.28937920  0.33340409  0.35140945    -0.82900
C49         C  0.34818142  0.15548138  0.18186866     0.02100
C50         C  0.35105379  0.19317882  0.18274128     0.02100
C51         C  0.36393288  0.21811329  0.17092270    -0.18400
C52         C  0.37373104  0.20636984  0.15835661     0.02100
C53         C  0.37221636  0.16946956  0.15768899     0.02100
C54         C  0.35901320  0.14436798  0.16934439    -0.18400
H55         H  0.35812046  0.11617663  0.16876434     0.04100
H56         H  0.36496326  0.24638356  0.17133573     0.04100
C57         C  0.83130027  0.13567598  0.17731566     0.02100
C58         C  0.86771965  0.17169077  0.17733827     0.02100
C59         C  0.87852446  0.19648690  0.16561923    -0.18400
C60         C  0.85466147  0.18543262  0.15356920     0.02100
C61         C  0.81909269  0.14829741  0.15325107     0.02100
C62         C  0.80788782  0.12398638  0.16519926    -0.18400
H63         H  0.78003377  0.09624045  0.16522990     0.04100
H64         H  0.90642713  0.22418981  0.16572183     0.04100
O65         O  0.24728204  0.86897428  0.33576670    -0.88500
C66         C  0.15626917  0.84586555  0.36228537     0.87500
Mg67       Mg  0.25395691  0.89683823  0.31579776     1.58100
O68         O  0.14727965  0.76281878  0.34451196    -0.88300
O69         O  0.24131057  0.81426590  0.34430203    -0.75600
C70         C  0.07758096  0.80000724  0.28522242     0.92600
O71         O  0.20240489  0.91816678  0.34003590    -0.75400
O72         O  0.10823085  0.83424230  0.28582684    -0.82900
Mg73       Mg  0.23756821  0.89748940  0.35346902     1.58000
C74         C  0.03840745  0.68248452  0.32657985     0.92500
O75         O  0.27433441  0.88326196  0.36887874    -0.81200
H76         H  0.16717606  0.72580641  0.34002613    -0.06500
C77         C  0.08647695  0.81216024  0.32676412     0.87400
O78         O  0.22460515  0.83651338  0.30457689    -0.75700
O79         O  0.18479335  0.84303329  0.35818178    -0.88400
O80         O  0.05423586  0.69816031  0.33828982    -0.81200
C81         C  0.10798766  0.73907131  0.37920044     0.92600
C82         C  0.26906467  0.85669867  0.37779266     0.92500
Mg83       Mg  0.10716315  0.75883650  0.31005707     1.58000
O84         O  0.07109623  0.77333301  0.29426864    -0.81200
O85         O  0.14137564  0.73725332  0.32362177    -0.75400
O86         O  0.14480989  0.76406436  0.37804484    -0.81300
O87         O  0.29301021  0.95589537  0.34862326    -0.83000
O88         O  0.20128820  0.89254398  0.28532912    -0.81300
C89         C  0.15226115  0.74110228  0.33634505     0.86900
O90         O  0.16063116  0.81317573  0.30537760    -0.88400
O91         O  0.09793590  0.78793629  0.32770835    -0.88500
O92         O  0.10378996  0.84224231  0.31886222    -0.75600
Mg93       Mg  0.19133651  0.79170221  0.36055894     1.58000
O94         O  0.08413512  0.73112361  0.36900486    -0.83000
H95         H  0.28310733  0.84859051  0.33007174    -0.06700
O96         O  0.19777397  0.89373676  0.31899816    -0.88200
H97         H  0.17619556  0.92923504  0.32367565    -0.06500
H98         H  0.18434354  0.78484445  0.29545605    -0.06700
C99         C  0.19181177  0.91457279  0.32728250     0.86900
C100        C  0.25860458  0.84460043  0.33651800     0.87500
C101        C  0.18937529  0.81051035  0.30142422     0.87500
H102        H  0.06178576  0.80820954  0.33309019    -0.06700
O103        O  0.12095998  0.82035267  0.35905562    -0.75700
Mg104      Mg  0.15438149  0.86472135  0.30279756     1.58000
H105        H  0.16160710  0.87141692  0.36839027    -0.06700
C106        C  0.30572220  0.97492823  0.33719313     0.92500
O107        O  0.26147671  0.92618993  0.29466318    -0.82900
C108        C  0.23799305  0.91814306  0.28435372     0.92500
O109        O  0.23858751  0.82223899  0.37739991    -0.82900
Mg110      Mg  0.09140182  0.76028013  0.34779541     1.58200
O111        O  0.29076355  0.95914792  0.32539435    -0.81200
O112        O  0.05091967  0.70116913  0.31506868    -0.82900
O113        O  0.63970088  0.76504564  0.33918352    -0.88500
C114        C  0.71065408  0.85699568  0.36494967     0.87500
Mg115      Mg  0.65903500  0.75813267  0.31889105     1.58100
O116        O  0.63414362  0.86546536  0.34895189    -0.88300
O117        O  0.59213812  0.77185402  0.34847109    -0.75600
C118        C  0.73527314  0.93461826  0.28892033     0.92600
O119        O  0.73458117  0.80932812  0.34236616    -0.75400
O120        O  0.73989364  0.90458328  0.28936352    -0.82900
Mg121      Mg  0.67975981  0.77496812  0.35631811     1.58000
C122        C  0.65725509  0.97155042  0.33114136     0.92500
O123        O  0.63010201  0.73868325  0.37215106    -0.81200
H124        H  0.57652530  0.84385719  0.34527808    -0.06500
C125        C  0.74186535  0.92609488  0.33007067     0.87400
O126        O  0.62734054  0.78730546  0.30823469    -0.75700
O127        O  0.67888791  0.82824971  0.36123621    -0.88400
O128        O  0.66019145  0.95751834  0.34286280    -0.81200
C129        C  0.65516183  0.90521220  0.38395333     0.92600
C130        C  0.60993680  0.74455804  0.38137660     0.92500
Mg131      Mg  0.66587966  0.90379987  0.31422636     1.58000
O132        O  0.71482509  0.94035556  0.29808636    -0.81200
O133        O  0.61162904  0.86895047  0.32832367    -0.75400
O134        O  0.64289394  0.86840307  0.38238468    -0.81300
O135        O  0.68166080  0.71905461  0.35114618    -0.83000
O136        O  0.70542867  0.81128101  0.28839129    -0.81300
C137        C  0.60631144  0.85921479  0.34116438     0.86900
O138        O  0.66783443  0.85119202  0.30926375    -0.88400
O139        O  0.70625286  0.91479468  0.33132499    -0.88500
O140        O  0.75413089  0.90842477  0.32209807    -0.75600
Mg141      Mg  0.62136828  0.82189845  0.36471257     1.58000
O142        O  0.66872116  0.92923016  0.37368766    -0.83000
H143        H  0.58287737  0.72974927  0.33408204    -0.06700
O144        O  0.71254671  0.81424969  0.32184164    -0.88200
H145        H  0.77001190  0.83480584  0.32550060    -0.06500
H146        H  0.61561853  0.82769244  0.29949280    -0.06700
C147        C  0.74019434  0.81974502  0.32959100     0.86900
C148        C  0.60416640  0.75418063  0.34039005     0.87500
C149        C  0.63641613  0.82255278  0.30527715     0.87500
H150        H  0.76303354  0.95088215  0.33627436    -0.06700
O151        O  0.71958367  0.89226239  0.36202989    -0.75700
Mg152      Mg  0.72557502  0.85803665  0.30598373     1.58000
H153        H  0.73186525  0.85192873  0.37047937    -0.06700
C154        C  0.68608296  0.70570739  0.33951698     0.92500
O155        O  0.67912063  0.75072797  0.29740947    -0.82900
C156        C  0.69374712  0.77449202  0.28713664     0.92500
O157        O  0.60642009  0.77522644  0.38121430    -0.82900
Mg158      Mg  0.68737859  0.92155445  0.35176700     1.58200
O159        O  0.68442121  0.72070698  0.32784966    -0.81200
O160        O  0.66241043  0.95865471  0.31952307    -0.82900
C161        C  0.81914477  0.68876565  0.17819589     0.02100
C162        C  0.85613781  0.69019879  0.17778547     0.02100
C163        C  0.86697120  0.67755391  0.16555578    -0.18400
C164        C  0.84222934  0.66456565  0.15366733     0.02100
C165        C  0.80649881  0.66564651  0.15391441     0.02100
C166        C  0.79532507  0.67722856  0.16619185    -0.18400
H167        H  0.76744926  0.67707424  0.16642921     0.04100
H168        H  0.89480034  0.67765736  0.16530573     0.04100
O169        O  0.45990505  0.03384154  0.00390559    -0.88500
C170        C  0.48479842  0.96781394  0.03078373     0.87500
Mg171      Mg  0.43131540  0.01124041  0.98410164     1.58100
O172        O  0.56728470  0.04105220  0.01242773    -0.88300
O173        O  0.51518004  0.08310678  0.01192481    -0.75600
C174        C  0.52685371  0.92955314  0.95430473     0.92600
O175        O  0.41028378  0.93970199  0.00893610    -0.75400
O176        O  0.49258451  0.92570462  0.95522147    -0.82900
Mg177      Mg  0.43216095  0.99646632  0.02190613     1.58000
C178        C  0.64648018  0.01032665  0.99458015     0.92500
O179        O  0.44673713  0.04767688  0.03718553    -0.81200
H180        H  0.60403604  0.09766746  0.00746202    -0.06500
C181        C  0.51697678  0.92959737  0.99595617     0.87400
O182        O  0.49109390  0.04111997  0.97256052    -0.75700
O183        O  0.48713979  0.99864438  0.02635447    -0.88400
O184        O  0.63209428  0.01200384  0.00640262    -0.81200
C185        C  0.59267026  0.02870614  0.04729424     0.92600
C186        C  0.47382994  0.06911318  0.04591951     0.92500
Mg187      Mg  0.56932113  0.00217248  0.97838281     1.58000
O188        O  0.55424148  0.95046522  0.96304232    -0.81200
O189        O  0.59175680  0.05920136  0.99136041    -0.75400
O190        O  0.56712607  0.03974951  0.04599359    -0.81300
O191        O  0.37378397  0.99368355  0.01721752    -0.83000
O192        O  0.43372738  0.95964356  0.95419977    -0.81300
C193        C  0.58857411  0.06717992  0.00403272     0.86900
O194        O  0.51454711  0.00070151  0.97387465    -0.88400
O195        O  0.54158979  0.96527892  0.99644153    -0.88500
O196        O  0.48629919  0.91629612  0.98831925    -0.75600
Mg197      Mg  0.53857202  0.05688975  0.02831515     1.58000
O198        O  0.60058601  0.01223147  0.03726289    -0.83000
H199        H  0.48006807  0.08967495  0.99780191    -0.06700
O200        O  0.43435297  0.95835907  0.98785029    -0.88200
H201        H  0.39816409  0.90158300  0.99274550    -0.06500
H202        H  0.54235396  0.05171706  0.96333763    -0.06700
C203        C  0.41335484  0.93202334  0.99622517     0.86900
C204        C  0.48437184  0.06958012  0.00435567     0.87500
C205        C  0.51698546  0.03166242  0.96953952     0.87500
H206        H  0.52108580  0.90935104  0.00249572    -0.06700
O207        O  0.51069120  0.95834581  0.02780275    -0.75700
Mg208      Mg  0.46281051  0.94263438  0.97192853     1.58000
H209        H  0.45947206  0.94784508  0.03701838    -0.06700
C210        C  0.35460204  0.98758832  0.00582529     0.92500
O211        O  0.40097538  0.98767191  0.96310386    -0.82900
C212        C  0.40843975  0.97109828  0.95299234     0.92500
O213        O  0.50850347  0.07389440  0.04505936    -0.82900
Mg214      Mg  0.57035256  0.98820016  0.01626302     1.58200
O215        O  0.36971326  0.98731812  0.99399834    -0.81200
O216        O  0.62698659  0.00383902  0.98324328    -0.82900
O217        O  0.54033132  0.57404138  0.99525258    -0.88500
C218        C  0.52161164  0.48212808  0.96981192     0.87500
Mg219      Mg  0.56742686  0.58266697  0.01544369     1.58100
O220        O  0.43607155  0.47112167  0.98620197    -0.88300
O221        O  0.48497336  0.56492307  0.98609662    -0.75600
C222        C  0.47287958  0.40789285  0.04663254     0.92600
O223        O  0.59295926  0.53212941  0.99214834    -0.75400
O224        O  0.50684068  0.43881726  0.04591595    -0.82900
Mg225      Mg  0.57067269  0.56469011  0.97809775     1.58000
C226        C  0.35624612  0.36408655  0.00456220     0.92500
O227        O  0.55544150  0.59940265  0.96216302    -0.81200
H228        H  0.39797797  0.49026189  0.98973948    -0.06500
C229        C  0.48719535  0.41443526  0.00526378     0.87400
O230        O  0.50659849  0.55233076  0.02625907    -0.75700
O231        O  0.51748774  0.51025637  0.97346365    -0.88400
O232        O  0.37275347  0.37840492  0.99280365    -0.81200
C233        C  0.41603324  0.42999795  0.95168388     0.92600
C234        C  0.52905270  0.59198316  0.95290613     0.92500
Mg235      Mg  0.43156038  0.43437082  0.02102780     1.58000
O236        O  0.44624578  0.40008535  0.03742122    -0.81200
O237        O  0.40954172  0.46671214  0.00678447    -0.75400
O238        O  0.44035056  0.46701884  0.95276841    -0.81300
O239        O  0.62758536  0.62159122  0.98295244    -0.83000
O240        O  0.56253949  0.53189658  0.04620609    -0.81300
C241        C  0.41360778  0.47622751  0.99392718     0.86900
O242        O  0.48506083  0.48870188  0.02557951    -0.88400
O243        O  0.46189570  0.42440552  0.00396178    -0.88500
O244        O  0.51708410  0.43328321  0.01316770    -0.75600
Mg245      Mg  0.46511417  0.51437720  0.97013365     1.58000
O246        O  0.40756654  0.40675084  0.96208757    -0.83000
H247        H  0.51718984  0.60798502  0.00026785    -0.06700
O248        O  0.56649106  0.52737312  0.01277816    -0.88200
H249        H  0.60441992  0.50809592  0.00908374    -0.06500
H250        H  0.45502437  0.51111804  0.03513899    -0.06700
C251        C  0.58884840  0.52228726  0.00498012     0.86900
C252        C  0.51475346  0.58368454  0.99405941     0.87500
C253        C  0.48120699  0.51687805  0.02936899     0.87500
H254        H  0.48444726  0.38979482  0.99918668    -0.06700
O255        O  0.49639182  0.44665941  0.97298471    -0.75700
Mg256      Mg  0.53732745  0.48432667  0.02893357     1.58000
H257        H  0.54794628  0.48797029  0.96412685    -0.06700
C258        C  0.64607459  0.63494294  0.99445250     0.92500
O259        O  0.59559154  0.59208666  0.03687063    -0.82900
C260        C  0.58697831  0.56887927  0.04728201     0.92500
O261        O  0.49539161  0.56057296  0.95327731    -0.82900
Mg262      Mg  0.43535227  0.41598066  0.98364053     1.58200
O263        O  0.63003463  0.62018361  0.00622673    -0.81200
O264        O  0.37437956  0.37761659  0.01612314    -0.82900
O265        O  0.03374905  0.45845062  0.99686881    -0.88500
C266        C  0.96607925  0.48152929  0.97029474     0.87500
Mg267      Mg  0.01290716  0.43273096  0.01723613     1.58100
O268        O  0.04308444  0.56523786  0.98691032    -0.88300
O269        O  0.08291222  0.51131711  0.98746894    -0.75600
C270        C  0.93814189  0.53621600  0.04659461     0.92600
O271        O  0.93941527  0.41034385  0.99325759    -0.75400
O272        O  0.93279987  0.50121164  0.04639313    -0.82900
Mg273      Mg  0.99439408  0.42873112  0.97951280     1.58000
C274        C  0.01920542  0.64948483  0.00429953     0.92500
O275        O  0.04397952  0.44001864  0.96363055    -0.81200
H276        H  0.10046463  0.60011726  0.99132442    -0.06500
C277        C  0.93379500  0.52032758  0.00519154     0.87400
O278        O  0.04534977  0.49373256  0.02783134    -0.75700
O279        O  0.99729108  0.48362132  0.97416343    -0.88400
O280        O  0.01805119  0.63280578  0.99266463    -0.81200
C281        C  0.02622807  0.58714787  0.95197813     0.92600
C282        C  0.06454061  0.46537186  0.95424134     0.92500
Mg283      Mg  0.00885489  0.57295054  0.02150403     1.58000
O284        O  0.95919650  0.56173980  0.03732610    -0.81200
O285        O  0.06380164  0.59110082  0.00773287    -0.75400
O286        O  0.03726101  0.56151841  0.95320250    -0.81300
O287        O  0.99050258  0.37021515  0.98516940    -0.83000
O288        O  0.96508655  0.44013019  0.04758626    -0.81300
C289        C  0.07028489  0.58628476  0.99502958     0.86900
O290        O  0.00564956  0.51808869  0.02683403    -0.88400
O291        O  0.96969152  0.54366249  0.00411992    -0.88500
O292        O  0.92025615  0.49069855  0.01333991    -0.75600
Mg293      Mg  0.05577318  0.53378803  0.97101905     1.58000
O294        O  0.01163581  0.59638256  0.96225727    -0.83000
H295        H  0.09007580  0.47789168  0.00216803    -0.06700
O296        O  0.96022644  0.43671665  0.01399228    -0.88200
H297        H  0.90285355  0.40135703  0.00969358    -0.06500
H298        H  0.05788622  0.54609695  0.03662171    -0.06700
C299        C  0.93299808  0.41532848  0.00594415     0.86900
C300        C  0.06960469  0.48190887  0.99572057     0.87500
C301        C  0.03679285  0.52027478  0.03082646     0.87500
H302        H  0.91349910  0.52460783  0.99873934    -0.06700
O303        O  0.95782421  0.50831622  0.97326760    -0.75700
Mg304      Mg  0.94707435  0.46799110  0.02979919     1.58000
H305        H  0.94471144  0.45563989  0.96459642    -0.06700
C306        C  0.98479515  0.35242976  0.99685842     0.92500
O307        O  0.99150053  0.40575452  0.03872768    -0.82900
C308        C  0.97626419  0.41465825  0.04889065     0.92500
O309        O  0.06962851  0.50028749  0.95438766    -0.82900
Mg310      Mg  0.99059217  0.56947319  0.98379242     1.58200
O311        O  0.98624253  0.36947302  0.00843517    -0.81200
O312        O  0.01295761  0.63132633  0.01591984    -0.82900
O313        O  0.29708993  0.08681303  0.66900956    -0.88500
C314        C  0.36681852  0.17976256  0.69486591     0.87500
Mg315      Mg  0.31598538  0.08004029  0.64860347     1.58100
O316        O  0.28929038  0.18666660  0.67885473    -0.88300
O317        O  0.24912140  0.09276370  0.67841169    -0.75600
C318        C  0.38995366  0.25685754  0.61891011     0.92600
O319        O  0.39203376  0.13381489  0.67177412    -0.75400
O320        O  0.39371727  0.22631462  0.61888887    -0.82900
Mg321      Mg  0.33808841  0.09858280  0.68595259     1.58000
C322        C  0.31343924  0.29439598  0.66106600     0.92500
O323        O  0.28987209  0.06145312  0.70204970    -0.81200
H324        H  0.23160783  0.16528146  0.67537221    -0.06500
C325        C  0.39697780  0.24772432  0.65985958     0.87400
O326        O  0.28283772  0.10842370  0.63832727    -0.75700
O327        O  0.33555462  0.15085409  0.69091631    -0.88400
O328        O  0.31531986  0.27978508  0.67280941    -0.81200
C329        C  0.30874284  0.22598790  0.71362634     0.92600
C330        C  0.26980882  0.06682123  0.71144486     0.92500
Mg331      Mg  0.32083055  0.22558041  0.64424454     1.58000
O332        O  0.36998467  0.26241656  0.62830510    -0.81200
O333        O  0.26647185  0.19075742  0.65837854    -0.75400
O334        O  0.29801107  0.18945246  0.71226235    -0.81300
O335        O  0.34168861  0.04399311  0.68078197    -0.83000
O336        O  0.35942212  0.13304989  0.61783168    -0.81300
C337        C  0.26131314  0.18061822  0.67118485     0.86900
O338        O  0.32244870  0.17259588  0.63921710    -0.88400
O339        O  0.36140015  0.23648030  0.66124676    -0.88500
O340        O  0.40903729  0.23031127  0.65165575    -0.75600
Mg341      Mg  0.27760644  0.14296138  0.69460875     1.58000
O342        O  0.32240636  0.24996224  0.70335909    -0.83000
H343        H  0.24029340  0.05067339  0.66408339    -0.06700
O344        O  0.36873691  0.13668542  0.65124935    -0.88200
H345        H  0.42656922  0.15909303  0.65470850    -0.06500
H346        H  0.26939723  0.14806907  0.62998552    -0.06700
C347        C  0.39691028  0.14343380  0.65892612     0.86900
C348        C  0.26145020  0.07537065  0.67032465     0.87500
C349        C  0.29097573  0.14350616  0.63548821     0.87500
H350        H  0.41832142  0.27234025  0.66608629    -0.06700
O351        O  0.37516410  0.21489071  0.69205934    -0.75700
Mg352      Mg  0.38025389  0.17995970  0.63546046     1.58000
H353        H  0.38807229  0.17499243  0.70050407    -0.06700
C354        C  0.34645842  0.03045650  0.66926637     0.92500
O355        O  0.33504329  0.07268915  0.62683983    -0.82900
C356        C  0.34823087  0.09637758  0.61648676     0.92500
O357        O  0.26466466  0.09654246  0.71119739    -0.82900
Mg358      Mg  0.34226472  0.24323068  0.68166002     1.58200
O359        O  0.34373688  0.04427287  0.65746365    -0.81200
O360        O  0.31831982  0.28106820  0.64950566    -0.82900
C361        C  0.15605205  0.33541666  0.84646769     0.02100
C362        C  0.19016089  0.33141332  0.84664697     0.02100
C363        C  0.20125075  0.31923622  0.83449236    -0.18400
C364        C  0.17892357  0.30995667  0.82213226     0.02100
C365        C  0.14333883  0.31145674  0.82208319     0.02100
C366        C  0.13296311  0.32519419  0.83416370    -0.18400
H367        H  0.10599833  0.32676138  0.83415489     0.04100
H368        H  0.22845387  0.31807195  0.83456916     0.04100
C369        C  0.14288572  0.81649269  0.84700625     0.02100
C370        C  0.18119302  0.85075255  0.84679404     0.02100
C371        C  0.19416317  0.87355110  0.83447950    -0.18400
C372        C  0.16999988  0.86356933  0.82257123     0.02100
C373        C  0.13183300  0.82967685  0.82277250     0.02100
C374        C  0.11864095  0.80680969  0.83501666    -0.18400
H375        H  0.08966526  0.78036767  0.83503255     0.04100
H376        H  0.22304190  0.90011346  0.83425966     0.04100
O377        O  0.90096203  0.21162168  0.67177539    -0.88500
C378        C  0.80858987  0.18665342  0.69801436     0.87500
Mg379      Mg  0.90794891  0.23941142  0.65167691     1.58100
O380        O  0.80198312  0.10470372  0.68001573    -0.88300
O381        O  0.89619460  0.15766376  0.68048798    -0.75600
C382        C  0.73079108  0.14277491  0.62138379     0.92600
O383        O  0.85590484  0.26060529  0.67586447    -0.75400
O384        O  0.76124621  0.17719578  0.62189493    -0.82900
Mg385      Mg  0.89048548  0.23965962  0.68946773     1.58000
C386        C  0.69394662  0.02325387  0.66150867     0.92500
O387        O  0.92668450  0.22595784  0.70541722    -0.81200
H388        H  0.82367773  0.06938390  0.67519259    -0.06500
C389        C  0.74060338  0.15367475  0.66266437     0.87400
O390        O  0.87877959  0.17930005  0.64046029    -0.75700
O391        O  0.83766394  0.18461993  0.69403936    -0.88400
O392        O  0.70918692  0.03860624  0.67332880    -0.81200
C393        C  0.76087362  0.07834772  0.71449433     0.92600
C394        C  0.92105488  0.19933595  0.71437060     0.92500
Mg395      Mg  0.76201721  0.10139667  0.64554623     1.58000
O396        O  0.72536022  0.11596265  0.63020792    -0.81200
O397        O  0.79718302  0.08048992  0.65892729    -0.75400
O398        O  0.79771912  0.10369417  0.71365415    -0.81300
O399        O  0.94622074  0.29772408  0.68457917    -0.83000
O400        O  0.85496188  0.23542795  0.62135894    -0.81300
C401        C  0.80798834  0.08404076  0.67166033     0.86900
O402        O  0.81483091  0.15616908  0.64108824    -0.88400
O403        O  0.75198906  0.12932427  0.66331960    -0.88500
O404        O  0.75791511  0.18424541  0.65498105    -0.75600
Mg405      Mg  0.84517280  0.13362284  0.69639676     1.58000
O406        O  0.73762784  0.07101390  0.70415968    -0.83000
H407        H  0.93831069  0.19277635  0.66646956    -0.06700
O408        O  0.85181762  0.23649846  0.65481556    -0.88200
H409        H  0.83060396  0.27236175  0.65938849    -0.06500
H410        H  0.83864040  0.12803496  0.63110919    -0.06700
C411        C  0.84585916  0.25739771  0.66306443     0.86900
C412        C  0.91319914  0.18803226  0.67271315     0.87500
C413        C  0.84361888  0.15357081  0.63714721     0.87500
H414        H  0.71600613  0.14944250  0.66910849    -0.06700
O415        O  0.77358133  0.16056146  0.69467003    -0.75700
Mg416      Mg  0.80812347  0.20746499  0.63876271     1.58000
H417        H  0.81314507  0.21190339  0.70414238    -0.06700
C418        C  0.95976814  0.31671464  0.67317660     0.92500
O419        O  0.91579857  0.26832463  0.63026100    -0.82900
C420        C  0.89186374  0.25998794  0.62005270     0.92500
O421        O  0.89127246  0.16447785  0.71358692    -0.82900
Mg422      Mg  0.74529529  0.10080378  0.68315506     1.58200
O423        O  0.94480126  0.30153358  0.66130949    -0.81200
O424        O  0.70642070  0.04274217  0.65015336    -0.82900
O425        O  0.75643636  0.62863892  0.66109951    -0.88500
C426        C  0.84820886  0.69781320  0.63518600     0.87500
Mg427      Mg  0.74811513  0.65021077  0.68070918     1.58100
O428        O  0.85942027  0.62586287  0.65349763    -0.88300
O429        O  0.76505822  0.58078800  0.65324376    -0.75600
C430        C  0.92368884  0.73492439  0.71226446     0.92600
O431        O  0.79882618  0.72263896  0.65642877    -0.75400
O432        O  0.89234741  0.73728907  0.71148851    -0.82900
Mg433      Mg  0.76597656  0.66593857  0.64320359     1.58000
C434        C  0.96823260  0.65780197  0.67225750     0.92500
O435        O  0.73135106  0.61403091  0.62796022    -0.81200
H436        H  0.84071175  0.56928296  0.65814016    -0.06500
C437        C  0.91636196  0.73647978  0.67076269     0.87400
O438        O  0.77838565  0.62116547  0.69253125    -0.75700
O439        O  0.82009970  0.66616801  0.63928672    -0.88400
O440        O  0.95343668  0.65754185  0.66030559    -0.81200
C441        C  0.90010807  0.64285667  0.61894028     0.92600
C442        C  0.73848937  0.59351520  0.61927602     0.92500
Mg443      Mg  0.89680848  0.66354027  0.68788097     1.58000
O444        O  0.93135004  0.71531811  0.70332560    -0.81200
O445        O  0.86449603  0.60697496  0.67458346    -0.75400
O446        O  0.86304693  0.62956971  0.62013995    -0.81300
O447        O  0.70906620  0.66664170  0.64728684    -0.83000
O448        O  0.79831388  0.70065743  0.71132581    -0.81300
C449        C  0.85466012  0.59954290  0.66178384     0.86900
O450        O  0.84215564  0.66298027  0.69195211    -0.88400
O451        O  0.90615396  0.70102994  0.67003899    -0.88500
O452        O  0.89781507  0.74862160  0.67833445    -0.75600
Mg453      Mg  0.81579706  0.60918867  0.63728129     1.58000
O454        O  0.92377422  0.65898138  0.62917214    -0.83000
H455        H  0.72179801  0.57236758  0.66696623    -0.06700
O456        O  0.80366296  0.70411703  0.67762204    -0.88200
H457        H  0.82342744  0.76075035  0.67271922    -0.06500
H458        H  0.81912292  0.61138373  0.70210710    -0.06700
C459        C  0.80893709  0.73035411  0.66920391     0.86900
C460        C  0.74636654  0.59318074  0.66061281     0.87500
C461        C  0.81371490  0.63135128  0.69591107     0.87500
H462        H  0.94102944  0.75754587  0.66450357    -0.06700
O463        O  0.88366031  0.70861546  0.63856688    -0.75700
Mg464      Mg  0.84657141  0.72011765  0.69415750     1.58000
H465        H  0.84235519  0.71736803  0.62892407    -0.06700
C466        C  0.69548651  0.67304842  0.65849789     0.92500
O467        O  0.73867617  0.67232005  0.70145743    -0.82900
C468        C  0.76130161  0.68860934  0.71191474     0.92500
O469        O  0.76960162  0.59084043  0.62015035    -0.82900
Mg470      Mg  0.91462622  0.68017729  0.65024465     1.58200
O471        O  0.71045817  0.67377069  0.67044842    -0.81200
O472        O  0.95413048  0.66330211  0.68353316    -0.82900
C473        C  0.62150693  0.82712539  0.84138327     0.02100
C474        C  0.62503294  0.79279032  0.84129133     0.02100
C475        C  0.63694058  0.78199851  0.82899555    -0.18400
C476        C  0.64670211  0.80526375  0.81679643     0.02100
C477        C  0.64419243  0.84035723  0.81698406     0.02100
C478        C  0.63141575  0.85057559  0.82928817    -0.18400
H479        H  0.62944126  0.87731754  0.82950619     0.04100
H480        H  0.63892590  0.75525508  0.82897667     0.04100
C481        C  0.00976656  0.48741597  0.48779201     0.02100
C482        C  0.00777134  0.52261604  0.48736452     0.02100
C483        C  0.99715159  0.53527618  0.49953671    -0.18400
C484        C  0.98903238  0.51412081  0.51215279     0.02100
C485        C  0.99119240  0.47899159  0.51259817     0.02100
C486        C  0.00171249  0.46631800  0.50040080    -0.18400
H487        H  0.00239207  0.43887448  0.50059698     0.04100
H488        H  0.99640426  0.56268629  0.49930854     0.04100
C489        C  0.47262410  0.49356011  0.48905114     0.02100
C490        C  0.51065773  0.52785557  0.48889088     0.02100
C491        C  0.53672109  0.53539864  0.50010881    -0.18400
C492        C  0.52520244  0.50996108  0.51168505     0.02100
C493        C  0.48707908  0.47586260  0.51192228     0.02100
C494        C  0.46102261  0.46825617  0.50069045    -0.18400
H495        H  0.43206354  0.44180705  0.50080413     0.04100
H496        H  0.56573540  0.56178405  0.49999994     0.04100
C497        C  0.51827856  0.99026505  0.48891420     0.02100
C498        C  0.47957416  0.98402065  0.48685495     0.02100
C499        C  0.46135327  0.99359068  0.49769644    -0.18400
C500        C  0.48035163  0.00862970  0.51061184     0.02100
C501        C  0.51916590  0.01517178  0.51262473     0.02100
C502        C  0.53733581  0.00555461  0.50179460    -0.18400
H503        H  0.56728922  0.01120741  0.50326008     0.04100
H504        H  0.43143511  0.98803279  0.49622186     0.04100
C505        C  0.00336440  0.96504472  0.00057463     0.02100
C506        C  0.03816095  0.00248997  0.00177167     0.02100
C507        C  0.03568267  0.03744367  0.00131738     0.02100
C508        C  0.99829328  0.03483536  0.00009661     0.02100
C509        C  0.96352354  0.99732882  0.99918977     0.02100
C510        C  0.96607651  0.96247550  0.99925292     0.02100
C511        C  0.70127186  0.33310578  0.33148786     0.02100
C512        C  0.70391424  0.37061237  0.33233558     0.02100
C513        C  0.66920459  0.37329913  0.33367954     0.02100
C514        C  0.63173891  0.33838819  0.33401404     0.02100
C515        C  0.62908609  0.30084633  0.33360432     0.02100
C516        C  0.66389253  0.29824896  0.33241174     0.02100
C517        C  0.36628328  0.66098955  0.66487729     0.02100
C518        C  0.36889000  0.69851371  0.66579336     0.02100
C519        C  0.33408428  0.70087843  0.66763613     0.02100
C520        C  0.29687489  0.66585558  0.66862705     0.02100
C521        C  0.29455733  0.62853876  0.66818080     0.02100
C522        C  0.32912222  0.62598102  0.66622644     0.02100
C523        C  0.00402128  0.65353866  0.67290056    -0.03500
C524        C  0.01980541  0.64681375  0.66060600    -0.09300
C525        C  0.05558004  0.64663341  0.66096785    -0.17000
C526        C  0.07622543  0.65319093  0.67359371     0.25200
C527        C  0.06030613  0.65890220  0.68594097    -0.18600
C528        C  0.02446820  0.65902249  0.68561570    -0.07500
C529        C  0.11441254  0.65562127  0.67372562    -0.14000
C530        C  0.14677219  0.65861778  0.67331822    -0.13700
C531        C  0.18539865  0.66233393  0.67211527     0.25100
C532        C  0.21095455  0.67364922  0.68368663    -0.19100
C533        C  0.24801416  0.67630047  0.68247101    -0.07600
C534        C  0.25974088  0.66759176  0.66967458    -0.03700
C535        C  0.23436052  0.65699926  0.65806458    -0.09000
C536        C  0.19742594  0.65437853  0.65927979    -0.16600
H537        H  0.00496826  0.64253398  0.65063216     0.11500
H538        H  0.06753345  0.64215760  0.65133394     0.10800
H539        H  0.07597416  0.66404043  0.69578208     0.10800
H540        H  0.01334255  0.66446351  0.69526185     0.11300
H541        H  0.20203889  0.67991715  0.69367248     0.11300
H542        H  0.26710652  0.68412646  0.69155745     0.11300
H543        H  0.24289811  0.64995170  0.64814708     0.11500
H544        H  0.17803789  0.64566930  0.65024816     0.10300
C545        C  0.40279173  0.65877025  0.66256274    -0.03500
C546        C  0.42428220  0.67304796  0.65004786    -0.09300
C547        C  0.46100940  0.67536792  0.64848668    -0.17000
C548        C  0.47647640  0.66319243  0.65938283     0.25200
C549        C  0.45452586  0.64768482  0.67170196    -0.18600
C550        C  0.41783859  0.64547866  0.67329141    -0.07500
C551        C  0.51540280  0.66787160  0.65814769    -0.14000
C552        C  0.54818377  0.67206992  0.65754463    -0.13700
C553        C  0.58695395  0.67605284  0.65741456     0.25100
C554        C  0.60895718  0.68515344  0.66981172    -0.19100
C555        C  0.64514808  0.68588646  0.67003052    -0.07600
C556        C  0.65990156  0.67749996  0.65782144    -0.03700
C557        C  0.63828767  0.66990835  0.64527228    -0.09000
C558        C  0.60201707  0.66909897  0.64509387    -0.16600
H559        H  0.41306568  0.68342009  0.64167132     0.11500
H560        H  0.47766985  0.68736780  0.63890804     0.10800
H561        H  0.46618251  0.63815244  0.68019951     0.10800
H562        H  0.40177353  0.63464605  0.68304197     0.11300
H563        H  0.59765947  0.69069382  0.67940681     0.11300
H564        H  0.66099819  0.69191027  0.67986126     0.11300
H565        H  0.64868212  0.66321475  0.63569853     0.11500
H566        H  0.58527272  0.66206931  0.63542855     0.10300
C567        C  0.65907611  0.79163723  0.80417772    -0.03500
C568        C  0.68866024  0.78124850  0.80534410    -0.09300
C569        C  0.69929917  0.76657152  0.79377592    -0.17000
C570        C  0.68055387  0.76198278  0.78084875     0.25200
C571        C  0.65119767  0.77249032  0.77954572    -0.18600
C572        C  0.64040902  0.78709962  0.79114964    -0.07500
C573        C  0.69151671  0.74633308  0.76902352    -0.14000
C574        C  0.70191594  0.73350614  0.75938832    -0.13700
C575        C  0.71574599  0.71930143  0.74794280     0.25100
C576        C  0.69106922  0.70009016  0.73649342    -0.19100
C577        C  0.70532920  0.68847341  0.72503492    -0.07600
C578        C  0.74463269  0.69605148  0.72482102    -0.03700
C579        C  0.76881772  0.71431104  0.73657210    -0.09000
C580        C  0.75444725  0.72581237  0.74802863    -0.16600
H581        H  0.70351974  0.78447518  0.81524640     0.11500
H582        H  0.72207667  0.75863134  0.79493710     0.10800
H583        H  0.63641196  0.76905244  0.76960995     0.10800
H584        H  0.61710386  0.79428434  0.79001712     0.11300
H585        H  0.66105999  0.69482515  0.73628646     0.11300
H586        H  0.68591838  0.67469576  0.71615472     0.11300
H587        H  0.79919481  0.72069957  0.73676649     0.11500
H588        H  0.77384304  0.74057414  0.75683432     0.10300
C589        C  0.55266968  0.51984798  0.52369523    -0.03500
C590        C  0.54115516  0.52515329  0.53709881    -0.09300
C591        C  0.56472777  0.52982675  0.54875019    -0.17000
C592        C  0.60025555  0.52959600  0.54713664     0.25200
C593        C  0.61257448  0.52558621  0.53373885    -0.18600
C594        C  0.58891311  0.52083393  0.52204312    -0.07500
C595        C  0.62393022  0.53387502  0.55929305    -0.14000
C596        C  0.64263296  0.53906774  0.56992164    -0.13700
C597        C  0.66436114  0.54846991  0.58288999     0.25100
C598        C  0.69739819  0.54362097  0.58424772    -0.19100
C599        C  0.72054359  0.55647051  0.59640981    -0.07600
C600        C  0.71097350  0.57450920  0.60734488    -0.03700
C601        C  0.67677568  0.57776004  0.60607368    -0.09000
C602        C  0.65371344  0.56486217  0.59393516    -0.16600
H603        H  0.51339496  0.52469311  0.53856173     0.11500
H604        H  0.55504425  0.53320522  0.55903735     0.10800
H605        H  0.64015297  0.52561613  0.53236100     0.10800
H606        H  0.59816920  0.51662924  0.51179684     0.11300
H607        H  0.70593661  0.53098757  0.57575437     0.11300
H608        H  0.74671267  0.55363056  0.59701540     0.11300
H609        H  0.66851866  0.59149812  0.61426007     0.11500
H610        H  0.62820892  0.56876352  0.59299888     0.10300
C611        C  0.91527060  0.63692589  0.60546269    -0.03500
C612        C  0.95480880  0.64579638  0.60417186    -0.09300
C613        C  0.96744616  0.63501851  0.59207801    -0.17000
C614        C  0.94080004  0.61545049  0.58113713     0.25200
C615        C  0.90191870  0.60801575  0.58208721    -0.18600
C616        C  0.88921369  0.61870494  0.59414075    -0.07500
C617        C  0.95236095  0.60071816  0.56930365    -0.14000
C618        C  0.95982195  0.58608940  0.55949531    -0.13700
C619        C  0.96677602  0.56721611  0.54776286     0.25100
C620        C  0.94286437  0.55772908  0.53583360    -0.19100
C621        C  0.94969476  0.53974703  0.52434452    -0.07600
C622        C  0.98034528  0.53078675  0.52471212    -0.03700
C623        C  0.00401295  0.54001272  0.53676568    -0.09000
C624        C  0.99721358  0.55812132  0.54824817    -0.16600
H625        H  0.97557755  0.65970403  0.61269673     0.11500
H626        H  0.99762869  0.64089379  0.59143731     0.10800
H627        H  0.88106176  0.59288900  0.57367257     0.10800
H628        H  0.85860390  0.61146880  0.59476169     0.11300
H629        H  0.91912587  0.56448502  0.53537703     0.11300
H630        H  0.93119917  0.53293568  0.51513032     0.11300
H631        H  0.02814803  0.53385461  0.53717038     0.11500
H632        H  0.01585319  0.56530958  0.55744105     0.10300
C633        C  0.40825264  0.73539804  0.66477187    -0.03500
C634        C  0.43682451  0.74486551  0.67528068    -0.09300
C635        C  0.47404622  0.77901969  0.67420588    -0.17000
C636        C  0.48312186  0.80421114  0.66264169     0.25200
C637        C  0.45471230  0.79489707  0.65213009    -0.18600
C638        C  0.41752066  0.76065659  0.65317131    -0.07500
C639        C  0.52122607  0.83995802  0.66171812    -0.14000
C640        C  0.55271545  0.87040017  0.66123016    -0.13700
C641        C  0.58967558  0.90754253  0.66106232     0.25100
C642        C  0.60392385  0.92892837  0.64857908    -0.19100
C643        C  0.63859905  0.96598212  0.64860276    -0.07600
C644        C  0.65951413  0.98229248  0.66114946    -0.03700
C645        C  0.64539355  0.96012580  0.67358133    -0.09000
C646        C  0.61078211  0.92309931  0.67352192    -0.16600
H647        H  0.43022574  0.72576109  0.68430171     0.11500
H648        H  0.49567791  0.78586929  0.68242320     0.10800
H649        H  0.46129492  0.81411283  0.64313866     0.10800
H650        H  0.39600150  0.75369301  0.64490952     0.11300
H651        H  0.58785465  0.91729094  0.63886441     0.11300
H652        H  0.64844223  0.98226360  0.63886089     0.11300
H653        H  0.66061522  0.97173205  0.68343509     0.11500
H654        H  0.60009815  0.90691569  0.68325913     0.10300
C655        C  0.25539318  0.59196737  0.66942909    -0.03500
C656        C  0.23644557  0.56955111  0.65746678    -0.09300
C657        C  0.19869623  0.53624047  0.65851432    -0.17000
C658        C  0.17966162  0.52497861  0.67153498     0.25200
C659        C  0.19871739  0.54702078  0.68353556    -0.18600
C660        C  0.23641330  0.58046254  0.68248316    -0.07500
C661        C  0.14048399  0.49102339  0.67251543    -0.14000
C662        C  0.10773105  0.46239167  0.67304937    -0.13700
C663        C  0.06903500  0.42754497  0.67337204     0.25100
C664        C  0.05462322  0.40593787  0.68578739    -0.19100
C665        C  0.01810986  0.37076922  0.68589653    -0.07600
C666        C  0.99558959  0.35659140  0.67353934    -0.03700
C667        C  0.00986100  0.37914131  0.66119749    -0.09000
C668        C  0.04631106  0.41436129  0.66113276    -0.16600
H669        H  0.25068896  0.57826560  0.64732263     0.11500
H670        H  0.18424091  0.51943564  0.64916432     0.10800
H671        H  0.18431736  0.53855804  0.69366361     0.10800
H672        H  0.25071945  0.59757242  0.69179335     0.11300
H673        H  0.07199306  0.41582024  0.69531844     0.11300
H674        H  0.00820979  0.35400812  0.69554076     0.11300
H675        H  0.99336931  0.36906501  0.65149422     0.11500
H676        H  0.05716080  0.43084766  0.65145950     0.10300
C677        C  0.65586863  0.86781557  0.80482981    -0.03500
C678        C  0.63029561  0.88083275  0.79995244    -0.09300
C679        C  0.64181274  0.90818348  0.78899068    -0.17000
C680        C  0.67907121  0.92297287  0.78276874     0.25200
C681        C  0.70466980  0.91006334  0.78753295    -0.18600
C682        C  0.69324457  0.88280898  0.79853333    -0.07500
C683        C  0.69124950  0.95166795  0.77161142    -0.14000
C684        C  0.70219469  0.97564680  0.76223979    -0.13700
C685        C  0.71636956  0.00373435  0.75085545     0.25100
C686        C  0.75677026  0.03138764  0.74971297    -0.19100
C687        C  0.77107038  0.05691630  0.73819174    -0.07600
C688        C  0.74513155  0.05502351  0.72757516    -0.03700
C689        C  0.70438676  0.02787515  0.72902585    -0.09000
C690        C  0.69015083  0.00246199  0.74058625    -0.16600
H691        H  0.60140699  0.86983330  0.80465992     0.11500
H692        H  0.62173777  0.91793953  0.78542047     0.10800
H693        H  0.73363272  0.92138361  0.78284267     0.10800
H694        H  0.71381297  0.87390072  0.80227458     0.11300
H695        H  0.77737884  0.03263636  0.75757756     0.11300
H696        H  0.80260518  0.07721240  0.73738163     0.11300
H697        H  0.68359516  0.02553885  0.72104906     0.11500
H698        H  0.65881457  0.98121722  0.74134558     0.10300
C699        C  0.54205512  0.03308111  0.52569181    -0.03500
C700        C  0.55912610  0.01413389  0.53302243    -0.09300
C701        C  0.58108238  0.03099540  0.54522090    -0.17000
C702        C  0.58647750  0.06712103  0.55023171     0.25200
C703        C  0.56982732  0.08636756  0.54292232    -0.18600
C704        C  0.54781724  0.06950524  0.53070899    -0.07500
C705        C  0.60913162  0.08421477  0.56285290    -0.14000
C706        C  0.62838603  0.09693959  0.57345535    -0.13700
C707        C  0.65193592  0.10990740  0.58607799     0.25100
C708        C  0.68402470  0.14852877  0.58718356    -0.19100
C709        C  0.70879307  0.15988000  0.59895516    -0.07600
C710        C  0.70186659  0.13264706  0.60978015    -0.03700
C711        C  0.66868611  0.09433985  0.60877690    -0.09000
C712        C  0.64400843  0.08309992  0.59701669    -0.16600
H713        H  0.55517056  0.98611812  0.52934782     0.11500
H714        H  0.59384618  0.01581843  0.55075543     0.10800
H715        H  0.57392026  0.11440568  0.54663991     0.10800
H716        H  0.53550017  0.08498977  0.52511452     0.11300
H717        H  0.69050981  0.16957382  0.57878969     0.11300
H718        H  0.73405949  0.18955899  0.59935731     0.11300
H719        H  0.66240730  0.07259300  0.61688680     0.11500
H720        H  0.61929756  0.05313233  0.59629939     0.10300
C721        C  0.90647298  0.28100806  0.60647973    -0.03500
C722        C  0.94585008  0.31196695  0.60499374    -0.09300
C723        C  0.95793684  0.33507073  0.59281022    -0.17000
C724        C  0.93092656  0.32749932  0.58194324     0.25200
C725        C  0.89218951  0.29581243  0.58309938    -0.18600
C726        C  0.88004243  0.27270932  0.59524219    -0.07500
C727        C  0.94219521  0.35331494  0.56992961    -0.14000
C728        C  0.95074065  0.37542245  0.56004730    -0.13700
C729        C  0.96104007  0.40214375  0.54833574     0.25100
C730        C  0.93491271  0.41456812  0.54371360    -0.19100
C731        C  0.94491400  0.44021513  0.53225365    -0.07600
C732        C  0.98128217  0.45387976  0.52533371    -0.03700
C733        C  0.00735149  0.44137404  0.53008142    -0.09000
C734        C  0.99730176  0.41572553  0.54150461    -0.16600
H735        H  0.96695419  0.31922775  0.61342415     0.11500
H736        H  0.98804288  0.35948784  0.59202970     0.10800
H737        H  0.87102474  0.28958668  0.57476018     0.10800
H738        H  0.84954788  0.24912508  0.59598990     0.11300
H739        H  0.90669306  0.40415998  0.54888270     0.11300
H740        H  0.92398027  0.44877684  0.52862380     0.11300
H741        H  0.03546483  0.45138475  0.52488926     0.11500
H742        H  0.01775532  0.40633913  0.54496816     0.10300
C743        C  0.95088968  0.75323021  0.72436427    -0.03500
C744        C  0.98738025  0.75408440  0.72487342    -0.09300
C745        C  0.01056297  0.76636873  0.73703748    -0.17000
C746        C  0.99765698  0.77789970  0.74889667     0.25200
C747        C  0.96210732  0.77850733  0.74832157    -0.18600
C748        C  0.93894947  0.76641126  0.73614580    -0.07500
C749        C  0.01989079  0.78721014  0.76182289    -0.14000
C750        C  0.03820271  0.79363312  0.77265862    -0.13700
C751        C  0.06066953  0.80077381  0.78544631     0.25100
C752        C  0.04636491  0.80665824  0.79817804    -0.19100
C753        C  0.06887250  0.81473059  0.81045799    -0.07600
C754        C  0.10604675  0.81721142  0.81011484    -0.03700
C755        C  0.11962981  0.81008103  0.79739641    -0.09000
C756        C  0.09719208  0.80210283  0.78514928    -0.16600
H757        H  0.99751963  0.74419243  0.71600690     0.11500
H758        H  0.03804711  0.76584931  0.73731253     0.10800
H759        H  0.95175046  0.78735826  0.75741300     0.10800
H760        H  0.91096840  0.76592796  0.73616365     0.11300
H761        H  0.01807852  0.80554912  0.79857658     0.11300
H762        H  0.05786558  0.82018708  0.82012845     0.11300
H763        H  0.14801696  0.81144238  0.79691165     0.11500
H764        H  0.10853588  0.79738597  0.77541780     0.10300
C765        C  0.94879022  0.21017941  0.72645091    -0.03500
C766        C  0.97877985  0.24977241  0.72851661    -0.09300
C767        C  0.00232693  0.26096044  0.74059127    -0.17000
C768        C  0.99652231  0.23285508  0.75081295     0.25200
C769        C  0.96739104  0.19321602  0.74872521    -0.18600
C770        C  0.94368299  0.18194068  0.73665681    -0.07500
C771        C  0.02010791  0.24497552  0.76348372    -0.14000
C772        C  0.04027804  0.25601664  0.77396719    -0.13700
C773        C  0.06515060  0.26957103  0.78631647     0.25100
C774        C  0.07887834  0.24596020  0.79232568    -0.19100
C775        C  0.10379133  0.25937874  0.80404081    -0.07600
C776        C  0.11573602  0.29684650  0.80987709    -0.03700
C777        C  0.10126010  0.32011396  0.80396462    -0.09000
C778        C  0.07623477  0.30659841  0.79224054    -0.16600
H779        H  0.98347025  0.27239855  0.72096277     0.11500
H780        H  0.02473947  0.29170966  0.74204107     0.10800
H781        H  0.96259018  0.17109539  0.75652262     0.10800
H782        H  0.92084594  0.15127080  0.73546227     0.11300
H783        H  0.07046805  0.21722004  0.78791851     0.11300
H784        H  0.11389181  0.24051560  0.80853966     0.11300
H785        H  0.10991895  0.34901631  0.80826092     0.11500
H786        H  0.06581515  0.32518728  0.78772265     0.10300
C787        C  0.30745895  0.32915960  0.66093381    -0.03500
C788        C  0.29999977  0.34344851  0.67345501    -0.09300
C789        C  0.29852703  0.37857524  0.67353785    -0.17000
C790        C  0.30454911  0.40002409  0.66114020     0.25200
C791        C  0.31088673  0.38549696  0.64856922    -0.18600
C792        C  0.31223932  0.35031208  0.64844601    -0.07500
C793        C  0.30634270  0.43789700  0.66146624    -0.14000
C794        C  0.30964280  0.47036210  0.66202615    -0.13700
C795        C  0.31495581  0.50965709  0.66306960     0.25100
C796        C  0.32564159  0.53417650  0.65124711    -0.19100
C797        C  0.33107750  0.57237466  0.65232900    -0.07600
C798        C  0.32586833  0.58640867  0.66524724    -0.03700
C799        C  0.31544577  0.56186416  0.67708414    -0.09000
C800        C  0.31002517  0.52370683  0.67599708    -0.16600
H801        H  0.29621333  0.32799575  0.68325583     0.11500
H802        H  0.29362093  0.38948990  0.68334213     0.10800
H803        H  0.31569553  0.40183560  0.63890666     0.10800
H804        H  0.31825598  0.34035956  0.63863578     0.11300
H805        H  0.32962425  0.52372269  0.64119391     0.11300
H806        H  0.33879288  0.59082069  0.64307700     0.11300
H807        H  0.31121186  0.57220875  0.68711857     0.11500
H808        H  0.30189227  0.50512760  0.68522766     0.10300
C809        C  0.33678765  0.74014385  0.66846031    -0.03500
C810        C  0.35470908  0.76483990  0.68007737    -0.09300
C811        C  0.35939733  0.80277766  0.68048746    -0.17000
C812        C  0.34621646  0.81634109  0.66928666     0.25200
C813        C  0.32789393  0.79159491  0.65775169    -0.18600
C814        C  0.32319770  0.75365980  0.65733429    -0.07500
C815        C  0.35144766  0.85559108  0.66959837    -0.14000
C816        C  0.35482778  0.88806147  0.66972322    -0.13700
C817        C  0.35665762  0.92586363  0.66979648     0.25100
C818        C  0.36246910  0.94674625  0.65727713    -0.19100
C819        C  0.36073799  0.98171076  0.65715321    -0.07600
C820        C  0.35319997  0.99627365  0.66958320    -0.03700
C821        C  0.34886447  0.97580032  0.68219934    -0.09000
C822        C  0.35046039  0.94080294  0.68228105    -0.16600
H823        H  0.36542494  0.75483288  0.68872488     0.11500
H824        H  0.37351968  0.82160250  0.68947769     0.10800
H825        H  0.31753927  0.80174795  0.64903565     0.10800
H826        H  0.30961134  0.73507241  0.64825167     0.11300
H827        H  0.36731110  0.93546638  0.64754646     0.11300
H828        H  0.36425847  0.99673837  0.64727311     0.11300
H829        H  0.34286209  0.98604217  0.69194830     0.11500
H830        H  0.34585796  0.92487344  0.69202982     0.10300
C831        C  0.25437430  0.03904778  0.72344921    -0.03500
C832        C  0.23487789  0.04584609  0.73459147    -0.09300
C833        C  0.22487551  0.02277428  0.74672166    -0.17000
C834        C  0.23410431  0.99256669  0.74789632     0.25200
C835        C  0.25237069  0.98471513  0.73671409    -0.18600
C836        C  0.26240190  0.00774041  0.72455678    -0.07500
C837        C  0.22566697  0.97044285  0.76073184    -0.14000
C838        C  0.21819012  0.95290203  0.77171459    -0.13700
C839        C  0.20772529  0.93232804  0.78491172     0.25100
C840        C  0.22877172  0.91456213  0.79000839    -0.19100
C841        C  0.21741017  0.89334838  0.80259137    -0.07600
C842        C  0.18469368  0.88947166  0.81008929    -0.03700
C843        C  0.16437240  0.90821550  0.80511337    -0.09000
C844        C  0.17582681  0.92950280  0.79258221    -0.16600
H845        H  0.22839235  0.06974130  0.73412440     0.11500
H846        H  0.21064888  0.02903758  0.75530816     0.10800
H847        H  0.25956981  0.96133837  0.73749690     0.10800
H848        H  0.27749728  0.00175261  0.71620832     0.11300
H849        H  0.25352791  0.91659969  0.78416072     0.11300
H850        H  0.23325081  0.87888467  0.80625104     0.11300
H851        H  0.13913127  0.90559821  0.81079347     0.11500
H852        H  0.15943086  0.94323683  0.78876404     0.10300
C853        C  0.30237608  0.24005152  0.72732000    -0.03500
C854        C  0.28826274  0.21436379  0.73892467    -0.09300
C855        C  0.27637113  0.22537820  0.75114703    -0.17000
C856        C  0.27842303  0.26217704  0.75197376     0.25200
C857        C  0.29404869  0.28860977  0.74073128    -0.18600
C858        C  0.30607393  0.27772003  0.72850741    -0.07500
C859        C  0.26253100  0.27187854  0.76402099    -0.14000
C860        C  0.24780496  0.27890349  0.77394992    -0.13700
C861        C  0.22959327  0.28617611  0.78588667     0.25100
C862        C  0.21665552  0.31376041  0.78506404    -0.19100
C863        C  0.19950127  0.32105278  0.79675436    -0.07600
C864        C  0.19481180  0.30061282  0.80938737    -0.03700
C865        C  0.20764732  0.27279585  0.81007278    -0.09000
C866        C  0.22486143  0.26562864  0.79840610    -0.16600
H867        H  0.28507911  0.18518941  0.73839526     0.11500
H868        H  0.26445136  0.20469269  0.75979131     0.10800
H869        H  0.29584379  0.31719265  0.74124668     0.10800
H870        H  0.31667007  0.29816951  0.71978005     0.11300
H871        H  0.22018402  0.32989633  0.77544473     0.11300
H872        H  0.19052777  0.34314569  0.79601860     0.11300
H873        H  0.20443069  0.25670059  0.81967193     0.11500
H874        H  0.23467792  0.24417411  0.79917761     0.10300
C875        C  0.35281929  0.08155837  0.60265036    -0.03500
C876        C  0.36768975  0.10723939  0.59106397    -0.09300
C877        C  0.37655720  0.09473780  0.57851350    -0.17000
C878        C  0.37067857  0.05641022  0.57730899     0.25200
C879        C  0.35457063  0.03017291  0.58859544    -0.18600
C880        C  0.34561254  0.04258245  0.60116249    -0.07500
C881        C  0.38386986  0.04508800  0.56490430    -0.14000
C882        C  0.39767900  0.03701613  0.55494362    -0.13700
C883        C  0.41691504  0.02864338  0.54359104     0.25100
C884        C  0.43284575  0.00395380  0.54586116    -0.19100
C885        C  0.45325436  0.99726520  0.53512668    -0.07600
C886        C  0.45823121  0.01537512  0.52197808    -0.03700
C887        C  0.44156996  0.03956601  0.51967611    -0.09000
C888        C  0.42118189  0.04628048  0.53043937    -0.16600
H889        H  0.37362402  0.13741206  0.59181572     0.11500
H890        H  0.38909208  0.11537954  0.56987974     0.10800
H891        H  0.34999114  0.00047096  0.58782692     0.10800
H892        H  0.33431788  0.02205177  0.60985803     0.11300
H893        H  0.42977923  0.99012544  0.55597062     0.11300
H894        H  0.46525476  0.97798690  0.53708293     0.11300
H895        H  0.44492725  0.05373714  0.50962328     0.11500
H896        H  0.40911687  0.06554513  0.52854741     0.10300
C897        C  0.40753309  0.28579990  0.60732194    -0.03500
C898        C  0.40468288  0.32036456  0.60721545    -0.09300
C899        C  0.41735982  0.34543617  0.59557008    -0.17000
C900        C  0.43303105  0.33633061  0.58389318     0.25200
C901        C  0.43719538  0.30275486  0.58407765    -0.18600
C902        C  0.42462704  0.27767684  0.59571637    -0.07500
C903        C  0.44289366  0.36022338  0.57145436    -0.14000
C904        C  0.44975861  0.37920651  0.56082352    -0.13700
C905        C  0.45748415  0.40147775  0.54806166     0.25100
C906        C  0.48806411  0.40615016  0.53917448    -0.19100
C907        C  0.49654306  0.42895328  0.52703716    -0.07600
C908        C  0.47466051  0.44751646  0.52371776    -0.03700
C909        C  0.44321550  0.44172595  0.53242039    -0.09000
C910        C  0.43474893  0.41888109  0.54457469    -0.16600
H911        H  0.39172164  0.32752905  0.61597321     0.11500
H912        H  0.41403483  0.37138042  0.59553806     0.10800
H913        H  0.44927078  0.29542517  0.57508508     0.10800
H914        H  0.42716367  0.25129854  0.59542829     0.11300
H915        H  0.50572989  0.39269770  0.54173795     0.11300
H916        H  0.52087242  0.43306888  0.52041748     0.11300
H917        H  0.42624919  0.45605731  0.53006801     0.11500
H918        H  0.41095321  0.41535731  0.55137104     0.10300
C919        C  0.97866210  0.31163755  0.99718186    -0.03500
C920        C  0.97598957  0.29287450  0.01007295    -0.09300
C921        C  0.97506640  0.25657426  0.01049592    -0.17000
C922        C  0.97664076  0.23833291  0.99806792     0.25200
C923        C  0.97794668  0.25606081  0.98517625    -0.18600
C924        C  0.97893157  0.29241695  0.98472011    -0.07500
C925        C  0.97874126  0.20244310  0.99857462    -0.14000
C926        C  0.98189345  0.17318623  0.99896610    -0.13700
C927        C  0.98647571  0.13869746  0.99925556     0.25100
C928        C  0.97895181  0.11555913  0.98717914    -0.19100
C929        C  0.98333250  0.08211686  0.98741308    -0.07600
C930        C  0.99528229  0.07141344  0.99973554    -0.03700
C931        C  0.00310720  0.09483076  0.01179683    -0.09000
C932        C  0.99870294  0.12830218  0.01155551    -0.16600
H933        H  0.97582737  0.30678851  0.01987836     0.11500
H934        H  0.97404859  0.24319447  0.02054216     0.10800
H935        H  0.97915288  0.24224484  0.97547780     0.10800
H936        H  0.98105777  0.30598565  0.97462685     0.11300
H937        H  0.96960081  0.12331150  0.97759237     0.11300
H938        H  0.97723900  0.06440926  0.97801457     0.11300
H939        H  0.01216053  0.08687895  0.02140526     0.11500
H940        H  0.00468023  0.14596985  0.02096245     0.10300
C941        C  0.00613272  0.92840997  0.00069463    -0.03500
C942        C  0.99235491  0.90281887  0.01226177    -0.09300
C943        C  0.99662767  0.86932423  0.01262839    -0.17000
C944        C  0.01475112  0.86116913  0.00144850     0.25200
C945        C  0.02805033  0.88635370  0.98980774    -0.18600
C946        C  0.02371538  0.91979507  0.98942082    -0.07500
C947        C  0.01995146  0.82715461  0.00197132    -0.14000
C948        C  0.02383474  0.79838996  0.00249188    -0.13700
C949        C  0.02674347  0.76305046  0.00318636     0.25100
C950        C  0.03381860  0.74748640  0.99102057    -0.19100
C951        C  0.03323307  0.71136552  0.99148595    -0.07600
C952        C  0.02551407  0.69027320  0.00415423    -0.03700
C953        C  0.02004392  0.70700680  0.01643291    -0.09000
C954        C  0.02055102  0.74307492  0.01592776    -0.16600
H955        H  0.97885414  0.90915332  0.02105966     0.11500
H956        H  0.98614860  0.85000823  0.02167399     0.10800
H957        H  0.04200197  0.88029046  0.98108351     0.10800
H958        H  0.03437789  0.93920786  0.98040805     0.11300
H959        H  0.03872751  0.76272568  0.98110047     0.11300
H960        H  0.03760573  0.69939650  0.98184273     0.11300
H961        H  0.01389492  0.69155236  0.02634472     0.11500
H962        H  0.01505673  0.75484814  0.02541375     0.10300
C963        C  0.03274738  0.60849744  0.93846014    -0.03500
C964        C  0.05028453  0.60026726  0.92700645    -0.09300
C965        C  0.06100256  0.62377575  0.91492916    -0.17000
C966        C  0.05434161  0.65580230  0.91409294     0.25200
C967        C  0.03562196  0.66332791  0.92521534    -0.18600
C968        C  0.02484003  0.63986591  0.93728813    -0.07500
C969        C  0.06844981  0.68213568  0.90217926    -0.14000
C970        C  0.08135513  0.70531729  0.89255122    -0.13700
C971        C  0.09719393  0.73372342  0.88126415     0.25100
C972        C  0.07488168  0.74949453  0.87566046    -0.19100
C973        C  0.09005006  0.77686697  0.86468237    -0.07600
C974        C  0.12786455  0.78901134  0.85917965    -0.03700
C975        C  0.15015269  0.77310699  0.86486642    -0.09000
C976        C  0.13494831  0.74574182  0.87586498    -0.16600
H977        H  0.05684323  0.57642650  0.92753116     0.11500
H978        H  0.07541858  0.61757896  0.90639124     0.10800
H979        H  0.03026261  0.68798437  0.92471074     0.10800
H980        H  0.01149406  0.64716280  0.94588539     0.11300
H981        H  0.04567613  0.74052124  0.87974201     0.11300
H982        H  0.07226218  0.78859939  0.86046057     0.11300
H983        H  0.17904629  0.78140313  0.86064899     0.11500
H984        H  0.15250985  0.73373706  0.88008309     0.10300
C985        C  0.14406302  0.34996717  0.85896473    -0.03500
C986        C  0.13804731  0.33124506  0.87205468    -0.09300
C987        C  0.12956319  0.34676538  0.88396082    -0.17000
C988        C  0.12675692  0.38112093  0.88297115     0.25200
C989        C  0.13179002  0.39936725  0.86988720    -0.18600
C990        C  0.14024186  0.38383907  0.85796521    -0.07500
C991        C  0.11901157  0.39769468  0.89537732    -0.14000
C992        C  0.11233415  0.41102779  0.90584423    -0.13700
C993        C  0.10318302  0.42580059  0.91842311     0.25100
C994        C  0.11089629  0.46491556  0.91913034    -0.19100
C995        C  0.09987395  0.47837784  0.93100927    -0.07600
C996        C  0.08081223  0.45286420  0.94239846    -0.03700
C997        C  0.07429254  0.41396830  0.94174639    -0.09000
C998        C  0.08535103  0.40061098  0.92987396    -0.16600
H999        H  0.14037408  0.30484792  0.87308085     0.11500
H1000       H  0.12553053  0.33214653  0.89396449     0.10800
H1001       H  0.12960502  0.42586611  0.86892112     0.10800
H1002       H  0.14479502  0.39882181  0.84801530     0.11300
H1003       H  0.12472581  0.48482338  0.91037853     0.11300
H1004       H  0.10525742  0.50841501  0.93109153     0.11300
H1005       H  0.05965337  0.39342421  0.95026569     0.11500
H1006       H  0.07924420  0.37032333  0.92951994     0.10300
C1007       C  0.31538479  0.32972902  0.00466831    -0.03500
C1008       C  0.29404439  0.31537800  0.99207624    -0.09300
C1009       C  0.25686273  0.28103454  0.99200277    -0.17000
C1010       C  0.24047265  0.26052959  0.00448475     0.25200
C1011       C  0.26099524  0.27505894  0.01710612    -0.18600
C1012       C  0.29815547  0.30945743  0.01721797    -0.07500
C1013       C  0.20363485  0.22353940  0.00423178    -0.14000
C1014       C  0.17381417  0.19164755  0.00387464    -0.13700
C1015       C  0.13915210  0.15288425  0.00326227     0.25100
C1016       C  0.12838366  0.12752553  0.01484193    -0.19100
C1017       C  0.09496555  0.08970643  0.01418155    -0.07600
C1018       C  0.07212745  0.07690891  0.00190827    -0.03700
C1019       C  0.08325429  0.10231057  0.99029281    -0.09000
C1020       C  0.11654186  0.14014585  0.99098150    -0.16600
H1021       H  0.30638237  0.33023017  0.98222808     0.11500
H1022       H  0.24127432  0.27003033  0.98216543     0.10800
H1023       H  0.24864050  0.25935412  0.02682577     0.10800
H1024       H  0.31379794  0.31957142  0.02707783     0.11300
H1025       H  0.14574718  0.13702598  0.02437876     0.11300
H1026       H  0.08664844  0.07055544  0.02325807     0.11300
H1027       H  0.06597830  0.09283966  0.98073891     0.11500
H1028       H  0.12466753  0.15942784  0.98194174     0.10300
C1029       C  0.92966663  0.92314175  0.99803950    -0.03500
C1030       C  0.92213086  0.90055288  0.98577865    -0.09300
C1031       C  0.88837612  0.86303705  0.98479757    -0.17000
C1032       C  0.86194399  0.84778082  0.99607683     0.25200
C1033       C  0.86928592  0.87036093  0.00829299    -0.18600
C1034       C  0.90297519  0.90788495  0.00927055    -0.07500
C1035       C  0.82719791  0.80909360  0.99514772    -0.14000
C1036       C  0.79747206  0.77711233  0.99465906    -0.13700
C1037       C  0.76093147  0.73978412  0.99438055     0.25100
C1038       C  0.74571668  0.71816133  0.00675223    -0.19100
C1039       C  0.70887912  0.68336988  0.00670763    -0.07600
C1040       C  0.68671950  0.66966548  0.99425356    -0.03700
C1041       C  0.70279871  0.69104176  0.98179093    -0.09000
C1042       C  0.73959387  0.72589716  0.98187691    -0.16600
H1043       H  0.94247040  0.91198555  0.97702308     0.11500
H1044       H  0.88295972  0.84591034  0.97528161     0.10800
H1045       H  0.84903331  0.85890137  0.01707522     0.10800
H1046       H  0.90849779  0.92491553  0.01881302     0.11300
H1047       H  0.76195016  0.72862330  0.01649800     0.11300
H1048       H  0.69742868  0.66765211  0.01648186     0.11300
H1049       H  0.68648449  0.68146067  0.97204093     0.11500
H1050       H  0.75102384  0.74243040  0.97224254     0.10300
C1051       C  0.53884443  0.61946809  0.94091180    -0.03500
C1052       C  0.51213002  0.60982332  0.92969290    -0.09300
C1053       C  0.52345829  0.63270977  0.91749658    -0.17000
C1054       C  0.56151255  0.66559750  0.91635144     0.25200
C1055       C  0.58771430  0.67644314  0.92766962    -0.18600
C1056       C  0.57648174  0.65358909  0.93988019    -0.07500
C1057       C  0.57419838  0.68709392  0.90335407    -0.14000
C1058       C  0.58479514  0.70440314  0.89233521    -0.13700
C1059       C  0.59701384  0.72538917  0.87922954     0.25100
C1060       C  0.62875006  0.76429802  0.87890771    -0.19100
C1061       C  0.63898583  0.78569145  0.86639054    -0.07600
C1062       C  0.61738670  0.76847933  0.85407989    -0.03700
C1063       C  0.58662415  0.72891545  0.85431872    -0.09000
C1064       C  0.57639456  0.70751294  0.86686439    -0.16600
H1065       H  0.48296868  0.58378011  0.93011764     0.11500
H1066       H  0.50288800  0.62411706  0.90881466     0.10800
H1067       H  0.61719983  0.70193966  0.92691826     0.10800
H1068       H  0.59776454  0.66190515  0.94831096     0.11300
H1069       H  0.64501236  0.77837073  0.88838439     0.11300
H1070       H  0.66300685  0.81609831  0.86637446     0.11300
H1071       H  0.56962100  0.71519441  0.84493909     0.11500
H1072       H  0.55184220  0.67736747  0.86699027     0.10300
C1073       C  0.39499267  0.41435859  0.93818862    -0.03500
C1074       C  0.40280658  0.43991654  0.92672101    -0.09300
C1075       C  0.37874197  0.42698103  0.91480794    -0.17000
C1076       C  0.34663407  0.38834099  0.91414065     0.25200
C1077       C  0.33974503  0.36210250  0.92518971    -0.18600
C1078       C  0.36380317  0.37495617  0.93712642    -0.07500
C1079       C  0.31943738  0.37655451  0.90253384    -0.14000
C1080       C  0.29616075  0.36799920  0.89302792    -0.13700
C1081       C  0.26841127  0.35859603  0.88171137     0.25100
C1082       C  0.24800516  0.32010460  0.87630205    -0.19100
C1083       C  0.22198532  0.31122311  0.86504534    -0.07600
C1084       C  0.21584259  0.34068072  0.85914589    -0.03700
C1085       C  0.23599719  0.37914741  0.86470826    -0.09000
C1086       C  0.26215885  0.38804474  0.87594844    -0.16600
H1087       H  0.42654854  0.47040513  0.92715984     0.11500
H1088       H  0.38441108  0.44753479  0.90631019     0.10800
H1089       H  0.31500005  0.33209470  0.92478154     0.10800
H1090       H  0.35689835  0.35452000  0.94575061     0.11300
H1091       H  0.25253898  0.29707091  0.88068117     0.11300
H1092       H  0.20677886  0.28142854  0.86085476     0.11300
H1093       H  0.23199750  0.40235202  0.86018445     0.11500
H1094       H  0.27782496  0.41794239  0.88003904     0.10300
C1095       C  0.68594321  0.01340183  0.99420398    -0.03500
C1096       C  0.70130585  0.00817546  0.98153578    -0.09300
C1097       C  0.73603955  0.00603729  0.98145407    -0.17000
C1098       C  0.75591964  0.00914820  0.99400441     0.25200
C1099       C  0.74153984  0.01547855  0.00659778    -0.18600
C1100       C  0.70684187  0.01763191  0.00671438    -0.07500
C1101       C  0.79044238  0.00480136  0.99407116    -0.14000
C1102       C  0.81925282  0.00103600  0.99462388    -0.13700
C1103       C  0.85415434  0.99760767  0.99592072     0.25100
C1104       C  0.87495070  0.00753941  0.00860525    -0.19100
C1105       C  0.90988112  0.00613639  0.00978722    -0.07600
C1106       C  0.92441527  0.99490863  0.99827213    -0.03700
C1107       C  0.90302239  0.98402165  0.98566475    -0.09000
C1108       C  0.86798991  0.98538849  0.98449352    -0.16600
H1109       H  0.68589815  0.00457883  0.97173305     0.11500
H1110       H  0.74694048  0.00117526  0.97164100     0.10800
H1111       H  0.75672611  0.01797413  0.01637578     0.10800
H1112       H  0.69581222  0.02147218  0.01666225     0.11300
H1113       H  0.86449695  0.01697831  0.01751120     0.11300
H1114       H  0.92611388  0.01463234  0.01957290     0.11300
H1115       H  0.91403551  0.97552468  0.97667017     0.11500
H1116       H  0.85210914  0.97761609  0.97463337     0.10300
C1117       C  0.07706946  0.00456503  0.00335741    -0.03500
C1118       C  0.08569068  0.99061340  0.01565519    -0.09300
C1119       C  0.12016789  0.98817959  0.01658847    -0.17000
C1120       C  0.14641183  0.99972576  0.00525051     0.25200
C1121       C  0.13846840  0.01469020  0.99309818    -0.18600
C1122       C  0.10396333  0.01714330  0.99215716    -0.07500
C1123       C  0.18076265  0.99503038  0.00592574    -0.14000
C1124       C  0.20927272  0.99065337  0.00628483    -0.13700
C1125       C  0.24382968  0.98623837  0.00630506     0.25100
C1126       C  0.26037201  0.98378667  0.99359903    -0.19100
C1127       C  0.29540652  0.98226351  0.99348541    -0.07600
C1128       C  0.31462846  0.98338580  0.00610969    -0.03700
C1129       C  0.29702138  0.98445009  0.01886536    -0.09000
C1130       C  0.26185047  0.98585459  0.01894609    -0.16600
H1131       H  0.06515661  0.98065816  0.02436782     0.11500
H1132       H  0.12596395  0.97657808  0.02603985     0.10800
H1133       H  0.15852371  0.02369132  0.98425260     0.10800
H1134       H  0.09757028  0.02764077  0.98255798     0.11300
H1135       H  0.24668846  0.98399200  0.98374828     0.11300
H1136       H  0.30812436  0.98159277  0.98347119     0.11300
H1137       H  0.31101503  0.98540537  0.02876580     0.11500
H1138       H  0.24925534  0.98761795  0.02885489     0.10300
C1139       C  0.20787842  0.86479115  0.85926757    -0.03500
C1140       C  0.24800523  0.87577665  0.85788476    -0.09300
C1141       C  0.27387663  0.89127701  0.86930189    -0.17000
C1142       C  0.26014010  0.89611897  0.88229779     0.25200
C1143       C  0.22018239  0.88510929  0.88379446    -0.18600
C1144       C  0.19426484  0.86970431  0.87235787    -0.07500
C1145       C  0.28705126  0.91228216  0.89405392    -0.14000
C1146       C  0.30967287  0.92520312  0.90387354    -0.13700
C1147       C  0.33632650  0.93932759  0.91574784     0.25100
C1148       C  0.33092216  0.96062945  0.92650469    -0.19100
C1149       C  0.35530413  0.97228338  0.93838561    -0.07600
C1150       C  0.38554274  0.96277476  0.93971944    -0.03700
C1151       C  0.39136781  0.94221268  0.92867997    -0.09000
C1152       C  0.36694761  0.93060102  0.91681549    -0.16600
H1153       H  0.25934322  0.87242708  0.84792937     0.11500
H1154       H  0.30466146  0.89961292  0.86797226     0.10800
H1155       H  0.20912576  0.88875554  0.89376860     0.10800
H1156       H  0.16375238  0.86229594  0.87366696     0.11300
H1157       H  0.30736097  0.96758730  0.92583916     0.11300
H1158       H  0.34978613  0.98786407  0.94668399     0.11300
H1159       H  0.41416436  0.93419306  0.92934926     0.11500
H1160       H  0.37149540  0.91412800  0.90858697     0.10300
C1161       C  0.53576074  0.91126667  0.94221466    -0.03500
C1162       C  0.50697015  0.89113121  0.93179522    -0.09300
C1163       C  0.51661014  0.87842770  0.91947179    -0.17000
C1164       C  0.55507973  0.88547870  0.91735947     0.25200
C1165       C  0.58360221  0.90421700  0.92785631    -0.18600
C1166       C  0.57404684  0.91701942  0.94020766    -0.07500
C1167       C  0.56559712  0.87505181  0.90417829    -0.14000
C1168       C  0.57432152  0.86723336  0.89295524    -0.13700
C1169       C  0.58498829  0.85815569  0.87954851     0.25100
C1170       C  0.62049576  0.88545652  0.87304515    -0.19100
C1171       C  0.63173637  0.87593474  0.86034676    -0.07600
C1172       C  0.60762776  0.83890828  0.85404502    -0.03700
C1173       C  0.57134471  0.81223487  0.86036868    -0.09000
C1174       C  0.56021839  0.82171997  0.87308014    -0.16600
H1175       H  0.47726916  0.88630062  0.93294060     0.11500
H1176       H  0.49426479  0.86394886  0.91143781     0.10800
H1177       H  0.61348556  0.90981214  0.92635041     0.10800
H1178       H  0.59696492  0.93250143  0.94797221     0.11300
H1179       H  0.63983374  0.91381396  0.87791686     0.11300
H1180       H  0.65981605  0.89689646  0.85567031     0.11300
H1181       H  0.55207950  0.78370023  0.85560893     0.11500
H1182       H  0.53258148  0.80043318  0.87795254     0.10300
C1183       C  0.92155933  0.54859662  0.05836400    -0.03500
C1184       C  0.92748677  0.58728343  0.05889278    -0.09300
C1185       C  0.91612243  0.60057636  0.07070250    -0.17000
C1186       C  0.89859553  0.57552430  0.08220633     0.25200
C1187       C  0.89146746  0.53660259  0.08161983    -0.18600
C1188       C  0.90277270  0.52319967  0.06980298    -0.07500
C1189       C  0.88899297  0.59016255  0.09470634    -0.14000
C1190       C  0.88155205  0.60295516  0.10514239    -0.13700
C1191       C  0.87230740  0.61822967  0.11755441     0.25100
C1192       C  0.83632362  0.59520236  0.12454811    -0.19100
C1193       C  0.82684658  0.61013565  0.13636405    -0.07600
C1194       C  0.85318567  0.64841019  0.14137818    -0.03700
C1195       C  0.88956273  0.67116417  0.13448372    -0.09000
C1196       C  0.89897020  0.65622506  0.12261342    -0.16600
H1197       H  0.94186288  0.60770672  0.05032135     0.11500
H1198       H  0.92173537  0.63070442  0.07096378     0.10800
H1199       H  0.87785666  0.51680785  0.09041476     0.10800
H1200       H  0.89784961  0.49332476  0.06981221     0.11300
H1201       H  0.81545850  0.56575184  0.12082135     0.11300
H1202       H  0.79882578  0.59184980  0.14159103     0.11300
H1203       H  0.91030128  0.70072671  0.13813531     0.11500
H1204       H  0.92692815  0.67440989  0.11733100     0.10300
C1205       C  0.78052942  0.65599158  0.14146488    -0.03500
C1206       C  0.79549508  0.67636949  0.12878610    -0.09300
C1207       C  0.77034740  0.66867620  0.11731407    -0.17000
C1208       C  0.73001173  0.64065704  0.11843165     0.25200
C1209       C  0.71499340  0.62019801  0.13102279    -0.18600
C1210       C  0.74005967  0.62787978  0.14248857    -0.07500
C1211       C  0.70397872  0.63243134  0.10665695    -0.14000
C1212       C  0.68166224  0.62389978  0.09685634    -0.13700
C1213       C  0.65517530  0.61145630  0.08504524     0.25100
C1214       C  0.62416196  0.57228483  0.08419293    -0.19100
C1215       C  0.60058103  0.55891819  0.07217853    -0.07600
C1216       C  0.60780998  0.58458330  0.06079468    -0.03700
C1217       C  0.63801222  0.62438946  0.06200172    -0.09000
C1218       C  0.66157572  0.63768280  0.07404585    -0.16600
H1219       H  0.82648214  0.69862324  0.12785273     0.11500
H1220       H  0.78228247  0.68468134  0.10761995     0.10800
H1221       H  0.68386314  0.59837332  0.13199001     0.10800
H1222       H  0.72792453  0.61193811  0.15217718     0.11300
H1223       H  0.61892334  0.55173322  0.09265243     0.11300
H1224       H  0.57763923  0.52811366  0.07161816     0.11300
H1225       H  0.64443298  0.64491434  0.05343993     0.11500
H1226       H  0.68549338  0.66808646  0.07460120     0.10300
C1227       C  0.66101935  0.25886782  0.33232513    -0.03500
C1228       C  0.66855682  0.24409107  0.32000733    -0.09300
C1229       C  0.66431910  0.20632430  0.31984649    -0.17000
C1230       C  0.65256141  0.18307901  0.33199630     0.25200
C1231       C  0.64532485  0.19787624  0.34433493    -0.18600
C1232       C  0.64950766  0.23559544  0.34449932    -0.07500
C1233       C  0.64820070  0.14419376  0.33182672    -0.14000
C1234       C  0.64551288  0.11203111  0.33166440    -0.13700
C1235       C  0.64445055  0.07461331  0.33142091     0.25100
C1236       C  0.64818214  0.05891707  0.31869646    -0.19100
C1237       C  0.65066843  0.02439223  0.31853068    -0.07600
C1238       C  0.64963607  0.00517200  0.33112900    -0.03700
C1239       C  0.64435319  0.02038232  0.34382766    -0.09000
C1240       C  0.64183886  0.05489281  0.34395795    -0.16600
H1241       H  0.67725621  0.26164356  0.31051862     0.11500
H1242       H  0.67006046  0.19519942  0.31025094     0.10800
H1243       H  0.63634113  0.18022322  0.35380384     0.10800
H1244       H  0.64359777  0.24663894  0.35407910     0.11300
H1245       H  0.65021193  0.07393146  0.30892663     0.11300
H1246       H  0.65469279  0.01352098  0.30857715     0.11300
H1247       H  0.64332422  0.00630349  0.35371281     0.11500
H1248       H  0.63889515  0.06674394  0.35387043     0.10300
C1249       C  0.69084394  0.67024956  0.33938366    -0.03500
C1250       C  0.68717720  0.65009568  0.32672330    -0.09300
C1251       C  0.68702003  0.61419354  0.32666970    -0.17000
C1252       C  0.69079729  0.59791678  0.33922599     0.25200
C1253       C  0.69569878  0.61829048  0.35183871    -0.18600
C1254       C  0.69566001  0.65418604  0.35193349    -0.07500
C1255       C  0.68818977  0.55969069  0.33912012    -0.14000
C1256       C  0.68485803  0.52722905  0.33852530    -0.13700
C1257       C  0.68032683  0.48828017  0.33739998     0.25100
C1258       C  0.66355954  0.46543522  0.32532327    -0.19100
C1259       C  0.65956274  0.42784542  0.32413486    -0.07600
C1260       C  0.67233411  0.41275560  0.33501986    -0.03700
C1261       C  0.68889183  0.43563585  0.34713436    -0.09000
C1262       C  0.69285546  0.47319040  0.34831840    -0.16600
H1263       H  0.68314543  0.66139182  0.31687718     0.11500
H1264       H  0.68316512  0.59872916  0.31684384     0.10800
H1265       H  0.69871974  0.60604073  0.36163143     0.10800
H1266       H  0.69851524  0.66888553  0.36185345     0.11300
H1267       H  0.65376069  0.47676404  0.31680140     0.11300
H1268       H  0.64688829  0.41065352  0.31469808     0.11300
H1269       H  0.69883850  0.42438818  0.35563351     0.11500
H1270       H  0.70582093  0.49050181  0.35771381     0.10300
C1271       C  0.65121361  0.91962962  0.39796867    -0.03500
C1272       C  0.65838695  0.95849697  0.39975329    -0.09300
C1273       C  0.64908378  0.97013140  0.41242847    -0.17000
C1274       C  0.63270162  0.94322090  0.42352357     0.25200
C1275       C  0.62743195  0.90518247  0.42209512    -0.18600
C1276       C  0.63664116  0.89346212  0.40944169    -0.07500
C1277       C  0.61803089  0.95334952  0.43583267    -0.14000
C1278       C  0.60283221  0.96062758  0.44556483    -0.13700
C1279       C  0.58231795  0.96862042  0.45656690     0.25100
C1280       C  0.57844848  0.95228780  0.46993832    -0.19100
C1281       C  0.55763541  0.95933976  0.48044570    -0.07600
C1282       C  0.54024674  0.98268549  0.47769519    -0.03700
C1283       C  0.54466248  0.99933873  0.46429502    -0.09000
C1284       C  0.56533317  0.99214906  0.45379429    -0.16600
H1285       H  0.66960385  0.97942420  0.39117311     0.11500
H1286       H  0.65330536  0.99966044  0.41338675     0.10800
H1287       H  0.61481174  0.88405513  0.43058816     0.10800
H1288       H  0.63093311  0.86340242  0.40849090     0.11300
H1289       H  0.59133029  0.93393503  0.47222419     0.11300
H1290       H  0.55472506  0.94625177  0.49068756     0.11300
H1291       H  0.53220151  0.01802602  0.46197131     0.11500
H1292       H  0.56806686  0.00495165  0.44350578     0.10300
C1293       C  0.52316582  0.55643950  0.47717936    -0.03500
C1294       C  0.50088513  0.57448663  0.47373254    -0.09300
C1295       C  0.50991146  0.59792287  0.46173939    -0.17000
C1296       C  0.54139165  0.60367952  0.45312918     0.25200
C1297       C  0.56449838  0.58680363  0.45675964    -0.18600
C1298       C  0.55553021  0.56338950  0.46877594    -0.07500
C1299       C  0.54943968  0.62613735  0.44041198    -0.14000
C1300       C  0.55652426  0.64470973  0.42968233    -0.13700
C1301       C  0.56656975  0.66746973  0.41697598     0.25100
C1302       C  0.58614854  0.65986895  0.40618882    -0.19100
C1303       C  0.59874659  0.68390236  0.39428607    -0.07600
C1304       C  0.59204279  0.71601333  0.39305165    -0.03700
C1305       C  0.57104597  0.72251260  0.40374095    -0.09000
C1306       C  0.55844677  0.69839139  0.41562877    -0.16600
H1307       H  0.47590329  0.56954182  0.48014320     0.11500
H1308       H  0.49194414  0.61095515  0.45905257     0.10800
H1309       H  0.58895971  0.59114113  0.45016605     0.10800
H1310       H  0.57286635  0.54952601  0.47124477     0.11300
H1311       H  0.59254622  0.63597105  0.40713042     0.11300
H1312       H  0.61484840  0.67808280  0.38627347     0.11300
H1313       H  0.56539312  0.74694857  0.40313130     0.11500
H1314       H  0.54325006  0.70447853  0.42392007     0.10300
C1315       C  0.80346296  0.69748676  0.19107809    -0.03500
C1316       C  0.79070146  0.72535722  0.19070322    -0.09300
C1317       C  0.77342054  0.73177412  0.20250716    -0.17000
C1318       C  0.76844998  0.71027966  0.21480964     0.25200
C1319       C  0.78138721  0.68266032  0.21531131    -0.18600
C1320       C  0.79877402  0.67625805  0.20350177    -0.07500
C1321       C  0.75029442  0.71689653  0.22688758    -0.14000
C1322       C  0.73606934  0.72409645  0.23691266    -0.13700
C1323       C  0.72139572  0.73503784  0.24897569     0.25100
C1324       C  0.70521911  0.70909110  0.26032395    -0.19100
C1325       C  0.69435147  0.72122297  0.27252625    -0.07600
C1326       C  0.69974939  0.75962381  0.27356720    -0.03700
C1327       C  0.71465257  0.78492933  0.26189404    -0.09000
C1328       C  0.72536653  0.77267816  0.24969962    -0.16600
H1329       H  0.79397403  0.74198637  0.18123653     0.11500
H1330       H  0.76368951  0.75333591  0.20200766     0.10800
H1331       H  0.77774489  0.66587904  0.22477359     0.10800
H1332       H  0.80789114  0.65423224  0.20396014     0.11300
H1333       H  0.70202725  0.67989477  0.25989355     0.11300
H1334       H  0.68314230  0.70104582  0.28132411     0.11300
H1335       H  0.71918916  0.81464487  0.26232274     0.11500
H1336       H  0.73781788  0.79301147  0.24097638     0.10300
C1337       C  0.34002895  0.01591285  0.33747605    -0.03500
C1338       C  0.35987677  0.03305728  0.35011903    -0.09300
C1339       C  0.39426279  0.07030547  0.35016611    -0.17000
C1340       C  0.40927637  0.09102021  0.33760676     0.25200
C1341       C  0.38929682  0.07458500  0.32502763    -0.18600
C1342       C  0.35495659  0.03736680  0.32494591    -0.07500
C1343       C  0.44588598  0.12841609  0.33750989    -0.14000
C1344       C  0.47714908  0.15905754  0.33707556    -0.13700
C1345       C  0.51507511  0.19493138  0.33619361     0.25100
C1346       C  0.53735266  0.20397647  0.32383729    -0.19100
C1347       C  0.57439446  0.23839962  0.32298779    -0.07600
C1348       C  0.58965282  0.26410380  0.33451482    -0.03700
C1349       C  0.56721238  0.25494709  0.34688199    -0.09000
C1350       C  0.53008742  0.22058444  0.34770443    -0.16600
H1351       H  0.34937041  0.01733546  0.35994094     0.11500
H1352       H  0.40949020  0.08264520  0.35997074     0.10800
H1353       H  0.40063029  0.09026001  0.31523269     0.10800
H1354       H  0.34056568  0.02508720  0.31501901     0.11300
H1355       H  0.52610372  0.18438690  0.31486359     0.11300
H1356       H  0.59117665  0.24509596  0.31334542     0.11300
H1357       H  0.57856374  0.27437882  0.35588869     0.11500
H1358       H  0.51320462  0.21393226  0.35732635     0.10300
C1359       C  0.74338120  0.40715241  0.33183997    -0.03500
C1360       C  0.75446842  0.43224076  0.32014593    -0.09300
C1361       C  0.79251483  0.46522810  0.31930202    -0.17000
C1362       C  0.81978898  0.47336495  0.33012511     0.25200
C1363       C  0.80865538  0.44870445  0.34189634    -0.18600
C1364       C  0.77059651  0.41580603  0.34276941    -0.07500
C1365       C  0.85917948  0.50695724  0.32914256    -0.14000
C1366       C  0.89195174  0.53546424  0.32835773    -0.13700
C1367       C  0.93044210  0.57047387  0.32758339     0.25100
C1368       C  0.95383874  0.58492447  0.33962608    -0.19100
C1369       C  0.98984417  0.62055154  0.33915483    -0.07600
C1370       C  0.00299041  0.64229210  0.32660184    -0.03700
C1371       C  0.97988299  0.62680086  0.31443213    -0.09000
C1372       C  0.94380980  0.59117596  0.31494460    -0.16600
H1373       H  0.73388358  0.42582802  0.31159566     0.11500
H1374       H  0.80078493  0.48415489  0.31016175     0.10800
H1375       H  0.82945584  0.45475973  0.35034725     0.10800
H1376       H  0.76244867  0.39674771  0.35186712     0.11300
H1377       H  0.94381052  0.56915104  0.34946662     0.11300
H1378       H  0.00684154  0.63158565  0.34872139     0.11300
H1379       H  0.98897017  0.64285452  0.30462852     0.11500
H1380       H  0.92590422  0.58027754  0.30555900     0.10300
C1381       C  0.09328826  0.71694721  0.39253755    -0.03500
C1382       C  0.05456049  0.68446826  0.39351019    -0.09300
C1383       C  0.04237461  0.66061547  0.40548799    -0.17000
C1384       C  0.06861565  0.66896424  0.41666639     0.25200
C1385       C  0.10678786  0.70183443  0.41596657    -0.18600
C1386       C  0.11907034  0.72567882  0.40400604    -0.07500
C1387       C  0.05687403  0.64322587  0.42867894    -0.14000
C1388       C  0.04781171  0.62166475  0.43872066    -0.13700
C1389       C  0.03753513  0.59624487  0.45078418     0.25100
C1390       C  0.00129653  0.58330782  0.45756838    -0.19100
C1391       C  0.99156888  0.55918272  0.46942290    -0.07600
C1392       C  0.01792380  0.54756002  0.47459512    -0.03700
C1393       C  0.05432271  0.56076481  0.46775775    -0.09000
C1394       C  0.06398914  0.58484981  0.45588881    -0.16600
H1395       H  0.03405503  0.67671811  0.38484968     0.11500
H1396       H  0.01275417  0.63522891  0.40591401     0.10800
H1397       H  0.12734801  0.70860434  0.42456076     0.10800
H1398       H  0.14909710  0.75034218  0.40360933     0.11300
H1399       H  0.98062744  0.59198817  0.45372703     0.11300
H1400       H  0.96339786  0.54941252  0.47453854     0.11300
H1401       H  0.07538821  0.55274675  0.47169266     0.11500
H1402       H  0.09219400  0.59482591  0.45076201     0.10300
C1403       C  0.45701714  0.96662163  0.47369321    -0.03500
C1404       C  0.45103642  0.93019216  0.46859730    -0.09300
C1405       C  0.43026607  0.91431519  0.45609079    -0.17000
C1406       C  0.41500624  0.93451691  0.44856977     0.25200
C1407       C  0.42057061  0.97063961  0.45366661    -0.18600
C1408       C  0.44131344  0.98653321  0.46616242    -0.07500
C1409       C  0.39305068  0.91803527  0.43576836    -0.14000
C1410       C  0.37376595  0.90516107  0.42517429    -0.13700
C1411       C  0.34952543  0.89133105  0.41271600     0.25100
C1412       C  0.35816960  0.91664450  0.40123659    -0.19100
C1413       C  0.33283103  0.90474506  0.38964089    -0.07600
C1414       C  0.29831074  0.86724308  0.38932664    -0.03700
C1415       C  0.29058051  0.84144012  0.40071363    -0.09000
C1416       C  0.31597414  0.85347021  0.41232694    -0.16600
H1417       H  0.46241359  0.91405058  0.47431867     0.11500
H1418       H  0.42599902  0.88625740  0.45231916     0.10800
H1419       H  0.40883191  0.98652838  0.44798151     0.10800
H1420       H  0.44553840  0.01461339  0.46988376     0.11300
H1421       H  0.38398529  0.94602029  0.40139416     0.11300
H1422       H  0.33976565  0.92538653  0.38108173     0.11300
H1423       H  0.26424312  0.81246444  0.40086628     0.11500
H1424       H  0.30887612  0.83360453  0.42115331     0.10300
C1425       C  0.88402852  0.70561585  0.18984933    -0.03500
C1426       C  0.89456680  0.74258923  0.19581857    -0.09300
C1427       C  0.91904686  0.75622781  0.20762961    -0.17000
C1428       C  0.93365881  0.73329509  0.21356898     0.25200
C1429       C  0.92415344  0.69690803  0.20746148    -0.18600
C1430       C  0.89957573  0.68317882  0.19565087    -0.07500
C1431       C  0.95777599  0.74674647  0.22605349    -0.14000
C1432       C  0.97753935  0.75735752  0.23660835    -0.13700
C1433       C  0.00117715  0.76899444  0.24921992     0.25100
C1434       C  0.99220952  0.74170493  0.26008006    -0.19100
C1435       C  0.01624545  0.75217341  0.27201317    -0.07600
C1436       C  0.04972290  0.79019816  0.27327598    -0.03700
C1437       C  0.05793270  0.81774947  0.26244026    -0.09000
C1438       C  0.03385131  0.80718186  0.25051136    -0.16600
H1439       H  0.88351876  0.76075010  0.19139711     0.11500
H1440       H  0.92630825  0.78450147  0.21219137     0.10800
H1441       H  0.93534279  0.67891369  0.21193347     0.10800
H1442       H  0.89193342  0.65465162  0.19124072     0.11300
H1443       H  0.96700592  0.71206379  0.25921928     0.11300
H1444       H  0.00908223  0.73017102  0.28010191     0.11300
H1445       H  0.08352217  0.84719702  0.26300866     0.11500
H1446       H  0.04113642  0.82859876  0.24218850     0.10300
C1447       C  0.96890468  0.39297827  0.06234373    -0.03500
C1448       C  0.95064837  0.40097955  0.07362194    -0.09300
C1449       C  0.93889767  0.37704066  0.08558156    -0.17000
C1450       C  0.94524913  0.34484263  0.08646060     0.25200
C1451       C  0.96461964  0.33749035  0.07552655    -0.18600
C1452       C  0.97643661  0.36138615  0.06356748    -0.07500
C1453       C  0.93025565  0.31823184  0.09823827    -0.14000
C1454       C  0.91666565  0.29504114  0.10781583    -0.13700
C1455       C  0.90004342  0.26708055  0.11916155     0.25100
C1456       C  0.89063538  0.22770668  0.11723999    -0.19100
C1457       C  0.87514363  0.20077310  0.12834378    -0.07600
C1458       C  0.86877873  0.21295503  0.14147100    -0.03700
C1459       C  0.87807290  0.25243041  0.14329361    -0.09000
C1460       C  0.89350695  0.27928533  0.13219482    -0.16600
H1461       H  0.94430656  0.42496036  0.07303628     0.11500
H1462       H  0.92395318  0.38305082  0.09398573     0.10800
H1463       H  0.96969904  0.31266066  0.07608504     0.10800
H1464       H  0.99024919  0.35424242  0.05508542     0.11300
H1465       H  0.89562922  0.21793960  0.10720766     0.11300
H1466       H  0.86875473  0.17064829  0.12677372     0.11300
H1467       H  0.87349757  0.26243931  0.15334353     0.11500
H1468       H  0.90061824  0.30963306  0.13380934     0.10300
C1469       C  0.79240928  0.13425713  0.14087721    -0.03500
C1470       C  0.77803548  0.15755769  0.13492435    -0.09300
C1471       C  0.75204651  0.14342841  0.12350359    -0.17000
C1472       C  0.73991572  0.10576785  0.11798154     0.25200
C1473       C  0.75396571  0.08236697  0.12391665    -0.18600
C1474       C  0.77997925  0.09646899  0.13529709    -0.07500
C1475       C  0.71301328  0.09096822  0.10626275    -0.14000
C1476       C  0.69067673  0.07819778  0.09640694    -0.13700
C1477       C  0.66443250  0.06334730  0.08450743     0.25100
C1478       C  0.67109853  0.04268505  0.07384512    -0.19100
C1479       C  0.64676774  0.02992242  0.06197160    -0.07600
C1480       C  0.61540252  0.03772686  0.06058336    -0.03700
C1481       C  0.60836624  0.05766294  0.07154329    -0.09000
C1482       C  0.63273059  0.07037986  0.08339338    -0.16600
H1483       H  0.78657540  0.18645007  0.13920966     0.11500
H1484       H  0.74125047  0.16175445  0.11903770     0.10800
H1485       H  0.74477068  0.05317703  0.11975667     0.10800
H1486       H  0.79055321  0.07793700  0.13974088     0.11300
H1487       H  0.69554578  0.03705603  0.07458880     0.11300
H1488       H  0.65321092  0.01491379  0.05371750     0.11300
H1489       H  0.58465289  0.06437178  0.07081814     0.11500
H1490       H  0.62724874  0.08632357  0.09157524     0.10300
C1491       C  0.81665490  0.11105465  0.19012714    -0.03500
C1492       C  0.81287620  0.12779681  0.20266631    -0.09300
C1493       C  0.80339426  0.10638228  0.21515280    -0.17000
C1494       C  0.79723420  0.06786119  0.21523321     0.25200
C1495       C  0.79949078  0.05041489  0.20267603    -0.18600
C1496       C  0.80904566  0.07188547  0.19014594    -0.07500
C1497       C  0.78953236  0.04676610  0.22827390    -0.14000
C1498       C  0.78328912  0.02961826  0.23930603    -0.13700
C1499       C  0.77471165  0.00841861  0.25235529     0.25100
C1500       C  0.78466810  0.97889709  0.25416815    -0.19100
C1501       C  0.77344763  0.95602537  0.26637031    -0.07600
C1502       C  0.75202474  0.96237245  0.27693998    -0.03700
C1503       C  0.74355267  0.99321427  0.27524602    -0.09000
C1504       C  0.75477401  0.01600675  0.26302206    -0.16600
H1505       H  0.81829695  0.15786725  0.20282716     0.11500
H1506       H  0.80153579  0.12010217  0.22477781     0.10800
H1507       H  0.79463592  0.02054261  0.20262210     0.10800
H1508       H  0.81188958  0.05852943  0.18058960     0.11300
H1509       H  0.80019094  0.97284136  0.24598922     0.11300
H1510       H  0.78045532  0.93256521  0.26731475     0.11300
H1511       H  0.72705607  0.99888297  0.28314327     0.11500
H1512       H  0.74698381  0.03884765  0.26173907     0.10300
C1513       C  0.38384100  0.23202084  0.14579937    -0.03500
C1514       C  0.41701326  0.27028618  0.14581869    -0.09300
C1515       C  0.42890910  0.29256973  0.13345491    -0.17000
C1516       C  0.40756417  0.27689468  0.12102180     0.25200
C1517       C  0.37370913  0.23931033  0.12108529    -0.18600
C1518       C  0.36182578  0.21706327  0.13340586    -0.07500
C1519       C  0.42062318  0.29884104  0.10811522    -0.14000
C1520       C  0.43084627  0.31638682  0.09712607    -0.13700
C1521       C  0.44228309  0.33741514  0.08400655     0.25100
C1522       C  0.41456843  0.32704616  0.07319854    -0.19100
C1523       C  0.42495167  0.34891627  0.06076114    -0.07600
C1524       C  0.46326756  0.38156493  0.05897685    -0.03700
C1525       C  0.49124811  0.39099081  0.06975636    -0.09000
C1526       C  0.48077803  0.36907711  0.08217534    -0.16600
H1527       H  0.43440856  0.28225463  0.15525418     0.11500
H1528       H  0.45511130  0.32168422  0.13353211     0.10800
H1529       H  0.35686494  0.22694274  0.11156148     0.10800
H1530       H  0.33598337  0.18770697  0.13321031     0.11300
H1531       H  0.38468504  0.30255975  0.07449615     0.11300
H1532       H  0.40263327  0.34093534  0.05272209     0.11300
H1533       H  0.52093668  0.41600113  0.06877577     0.11500
H1534       H  0.50249302  0.37735364  0.09046233     0.10300
C1535       C  0.46368848  0.08649568  0.05796115    -0.03500
C1536       C  0.49271437  0.11047845  0.06782177    -0.09300
C1537       C  0.48207319  0.12225658  0.08016032    -0.17000
C1538       C  0.44234794  0.11021762  0.08282560     0.25200
C1539       C  0.41345677  0.08748733  0.07288254    -0.18600
C1540       C  0.42401195  0.07579087  0.06052496    -0.07500
C1541       C  0.43098175  0.11993710  0.09594987    -0.14000
C1542       C  0.42108155  0.12741358  0.10698843    -0.13700
C1543       C  0.40932593  0.13682410  0.12008745     0.25100
C1544       C  0.37141438  0.11194285  0.12552833    -0.19100
C1545       C  0.35958273  0.12201269  0.13797918    -0.07600
C1546       C  0.38551596  0.15719949  0.14504302    -0.03700
C1547       C  0.42383906  0.18146968  0.13971805    -0.09000
C1548       C  0.43561059  0.17139466  0.12728887    -0.16600
H1549       H  0.52347203  0.11916774  0.06620852     0.11500
H1550       H  0.50471528  0.13995399  0.08777169     0.10800
H1551       H  0.38262546  0.07802293  0.07482413     0.10800
H1552       H  0.40084827  0.05716145  0.05322376     0.11300
H1553       H  0.35084894  0.08507325  0.12005226     0.11300
H1554       H  0.32992151  0.10294978  0.14191401     0.11300
H1555       H  0.44441954  0.20850556  0.14509885     0.11500
H1556       H  0.46504391  0.19078075  0.12321628     0.10300
C1557       C  0.25304502  0.94101492  0.27115020    -0.03500
C1558       C  0.22701452  0.93513464  0.25999772    -0.09300
C1559       C  0.23994716  0.96026152  0.24835067    -0.17000
C1560       C  0.27905434  0.99153227  0.24763972     0.25200
C1561       C  0.30550536  0.99682499  0.25844495    -0.18600
C1562       C  0.29265829  0.97175882  0.27010757    -0.07500
C1563       C  0.29156079  0.01919382  0.23615296    -0.14000
C1564       C  0.30158692  0.04303091  0.22676827    -0.13700
C1565       C  0.31297186  0.07161073  0.21561975     0.25100
C1566       C  0.34236472  0.11108680  0.21782692    -0.19100
C1567       C  0.35350590  0.13871356  0.20695406    -0.07600
C1568       C  0.33513728  0.12718059  0.19377301    -0.03700
C1569       C  0.30559141  0.08752504  0.19167075    -0.09000
C1570       C  0.29458007  0.05996559  0.20251981    -0.16600
H1571       H  0.19630238  0.91192670  0.26046154     0.11500
H1572       H  0.21917569  0.95586259  0.24005783     0.10800
H1573       H  0.33584001  0.02092958  0.25802005     0.10800
H1574       H  0.31345089  0.97729049  0.27850670     0.11300
H1575       H  0.35688150  0.12043067  0.22791233     0.11300
H1576       H  0.37687135  0.16888200  0.20875366     0.11300
H1577       H  0.29111552  0.07789754  0.18158968     0.11500
H1578       H  0.27181110  0.02954616  0.20067379     0.10300
C1579       C  0.33812152  0.32255899  0.34045070    -0.03500
C1580       C  0.35255217  0.31486822  0.32801359    -0.09300
C1581       C  0.38882495  0.31583414  0.32788305    -0.17000
C1582       C  0.41123537  0.32443124  0.34015592     0.25200
C1583       C  0.39653427  0.33069614  0.35270018    -0.18600
C1584       C  0.36016562  0.32969925  0.35286846    -0.07500
C1585       C  0.44997480  0.32844053  0.33966975    -0.14000
C1586       C  0.48261349  0.33242931  0.33875729    -0.13700
C1587       C  0.52126998  0.33662323  0.33728705     0.25100
C1588       C  0.54805919  0.35063169  0.34849290    -0.19100
C1589       C  0.58476661  0.35267210  0.34727099    -0.07600
C1590       C  0.59491606  0.34066802  0.33482967    -0.03700
C1591       C  0.56844830  0.32775447  0.32349036    -0.09000
C1592       C  0.53178542  0.32570370  0.32472214    -0.16600
H1593       H  0.33639758  0.30925087  0.31826591     0.11500
H1594       H  0.39984725  0.31083676  0.31812060     0.10800
H1595       H  0.41362056  0.33732150  0.36227325     0.10800
H1596       H  0.35002512  0.33588704  0.36260270     0.11300
H1597       H  0.54025850  0.35921122  0.35825315     0.11300
H1598       H  0.60475488  0.36242736  0.35614123     0.11300
H1599       H  0.57584993  0.31833113  0.31383349     0.11500
H1600       H  0.51135750  0.31491482  0.31597400     0.10300
C1601       C  0.73807292  0.33084951  0.32978192    -0.03500
C1602       C  0.75253886  0.31817582  0.34090646    -0.09300
C1603       C  0.78956514  0.32073677  0.33988057    -0.17000
C1604       C  0.81249173  0.33598622  0.32772972     0.25200
C1605       C  0.79760471  0.34752626  0.31645620    -0.18600
C1606       C  0.76058152  0.34487368  0.31745722    -0.07500
C1607       C  0.85173751  0.34100071  0.32698429    -0.14000
C1608       C  0.88476874  0.34563654  0.32652900    -0.13700
C1609       C  0.92389868  0.35024007  0.32639128     0.25100
C1610       C  0.94104704  0.34788964  0.31378525    -0.19100
C1611       C  0.97758428  0.34913099  0.31384318    -0.07600
C1612       C  0.99748111  0.35267308  0.32654319    -0.03700
C1613       C  0.98073620  0.35672057  0.33908296    -0.09000
C1614       C  0.94425296  0.35542524  0.33899389    -0.16600
H1615       H  0.73576081  0.30760055  0.35053196     0.11500
H1616       H  0.80069434  0.31167607  0.34867764     0.10800
H1617       H  0.81495556  0.35932053  0.30699924     0.10800
H1618       H  0.74992640  0.35485731  0.30878591     0.11300
H1619       H  0.92569188  0.34403093  0.30394527     0.11300
H1620       H  0.98954233  0.34594082  0.30400354     0.11300
H1621       H  0.99513799  0.35952518  0.34905626     0.11500
H1622       H  0.93143435  0.35743336  0.34881831     0.10300
C1623       C  0.08607233  0.36906928  0.39361568    -0.03500
C1624       C  0.04563984  0.35602472  0.39563226    -0.09300
C1625       C  0.03292128  0.36702381  0.40767071    -0.17000
C1626       C  0.06043475  0.39118193  0.41779628     0.25200
C1627       C  0.10048146  0.40332847  0.41605714    -0.18600
C1628       C  0.11322681  0.39228784  0.40410072    -0.07500
C1629       C  0.04819732  0.40499964  0.42972495    -0.14000
C1630       C  0.04021281  0.41857268  0.43973110    -0.13700
C1631       C  0.03260886  0.43610816  0.45173659     0.25100
C1632       C  0.05558104  0.44388739  0.46384685    -0.19100
C1633       C  0.04840199  0.46100741  0.47552462    -0.07600
C1634       C  0.01827305  0.47072102  0.47518322    -0.03700
C1635       C  0.99533196  0.46287176  0.46299384    -0.09000
C1636       C  0.00256181  0.44575610  0.45131291    -0.16600
H1637       H  0.02400290  0.33819934  0.38776077     0.11500
H1638       H  0.00181531  0.35743154  0.40892816     0.10800
H1639       H  0.12203473  0.42206896  0.42381780     0.13500
H1640       H  0.14457617  0.40304722  0.40288277     0.11300
H1641       H  0.07898820  0.43664709  0.46427007     0.11300
H1642       H  0.06636505  0.46676309  0.48482819     0.11300
H1643       H  0.97156046  0.46956956  0.46259136     0.11500
H1644       H  0.98462359  0.43986938  0.44199376     0.10300
C1645       C  0.28806868  0.42417524  0.39228153    -0.03500
C1646       C  0.27952406  0.44368500  0.40298787    -0.09300
C1647       C  0.30211182  0.45569243  0.41530442    -0.17000
C1648       C  0.33354449  0.44844515  0.41708743     0.25200
C1649       C  0.34306219  0.43029505  0.40631208    -0.18600
C1650       C  0.32058946  0.41829214  0.39401104    -0.07500
C1651       C  0.35510102  0.45788217  0.43013342    -0.14000
C1652       C  0.37380974  0.46384726  0.44083025    -0.13700
C1653       C  0.39767424  0.46979176  0.45312591     0.25100
C1654       C  0.43460233  0.47238166  0.45172442    -0.19100
C1655       C  0.45830649  0.47871586  0.46349805    -0.07600
C1656       C  0.44559091  0.48296487  0.47683579    -0.03700
C1657       C  0.40805668  0.47926332  0.47827136    -0.09000
C1658       C  0.38424520  0.47280440  0.46645248    -0.16600
H1659       H  0.25463912  0.44855244  0.40205026     0.11500
H1660       H  0.29444983  0.46974563  0.42356348     0.10800
H1661       H  0.36731377  0.42453432  0.40755428     0.10800
H1662       H  0.32798336  0.40327469  0.38604177     0.11300
H1663       H  0.44521803  0.46981196  0.44150884     0.11300
H1664       H  0.48696938  0.48103395  0.46218386     0.11300
H1665       H  0.39774168  0.48247552  0.48845521     0.11500
H1666       H  0.35561212  0.47061482  0.46768462     0.10300
C1667       C  0.89531676  0.18304847  0.18936884    -0.03500
C1668       C  0.90709071  0.21849230  0.19665785    -0.09300
C1669       C  0.92977401  0.22700513  0.20886770    -0.17000
C1670       C  0.94105041  0.20029449  0.21381527     0.25200
C1671       C  0.93057966  0.16562508  0.20630328    -0.18600
C1672       C  0.90799062  0.15712289  0.19411009    -0.07500
C1673       C  0.96234845  0.20782325  0.22679908    -0.14000
C1674       C  0.97969733  0.21413022  0.23778874    -0.13700
C1675       C  0.00083238  0.22326088  0.25085763     0.25100
C1676       C  0.03344238  0.21779144  0.25233678    -0.19100
C1677       C  0.05611085  0.23000698  0.26459057    -0.07600
C1678       C  0.04651006  0.24806210  0.27550381    -0.03700
C1679       C  0.01266046  0.25187730  0.27413296    -0.09000
C1680       C  0.99002181  0.23956989  0.26188350    -0.16600
H1681       H  0.89756372  0.23879684  0.19317004     0.11500
H1682       H  0.93782944  0.25398361  0.21459680     0.10800
H1683       H  0.93928207  0.14485154  0.20999960     0.10800
H1684       H  0.89953054  0.12982750  0.18853861     0.11300
H1685       H  0.04203081  0.20513919  0.24386331     0.11300
H1686       H  0.08201479  0.22672608  0.26527342     0.11300
H1687       H  0.00440959  0.26561464  0.28232046     0.11500
H1688       H  0.96476526  0.24384120  0.26085413     0.10300
C1689       C  0.25030845  0.30323966  0.27366479    -0.03500
C1690       C  0.29056137  0.31449133  0.27242698    -0.09300
C1691       C  0.30417471  0.30291429  0.26076867    -0.17000
C1692       C  0.27785472  0.27996893  0.25015507     0.25200
C1693       C  0.23807580  0.26989838  0.25102994    -0.18600
C1694       C  0.22438580  0.28146197  0.26266736    -0.07500
C1695       C  0.29124138  0.26527660  0.23872025    -0.14000
C1696       C  0.30211719  0.25206743  0.22934889    -0.13700
C1697       C  0.31498704  0.23627797  0.21810939     0.25100
C1698       C  0.28933145  0.19860358  0.21260670    -0.19100
C1699       C  0.30127269  0.18404229  0.20131719    -0.07600
C1700       C  0.33915152  0.20692280  0.19543169    -0.03700
C1701       C  0.36492999  0.24443059  0.20115763    -0.09000
C1702       C  0.35295299  0.25895098  0.21242553    -0.16600
H1703       H  0.31135493  0.33119742  0.28067260     0.11500
H1704       H  0.33504970  0.31101537  0.26021360     0.10800
H1705       H  0.21738808  0.25223393  0.24288111     0.10800
H1706       H  0.19323450  0.27222059  0.26325026     0.11300
H1707       H  0.25985853  0.18075781  0.21688646     0.11300
H1708       H  0.28062202  0.15534575  0.19696150     0.11300
H1709       H  0.39423683  0.26263350  0.19679743     0.11500
H1710       H  0.37313062  0.28809188  0.21658131     0.10300
loop_ 
_geom_bond_atom_site_label_1 
_geom_bond_atom_site_label_2 
_geom_bond_distance 
_geom_bond_site_symmetry_2 
_ccdc_geom_bond_type 
O1           Mg3   2.142       .  S
O1           Mg9   2.156       .  S
O1           C36   1.236       .  S
C2           O15   1.236       .  S
C2           O39   1.270       .  A
C2           H41   1.081       .  S
Mg3          O32   2.160       .  S
Mg3          O47   2.306       .  S
Mg3          O43   2.271       .  S
Mg3          O14   2.300       .  S
O4          Mg46   2.155       .  S
O4          Mg29   2.144       .  S
O4           C25   1.235       .  S
O5           C36   1.270       .  A
O5          Mg29   2.297       .  S
C6            O8   1.273       .  A
C6           O20   1.276       .  A
C6         C1645   1.487       .  S
O7           C35   1.270       .  A
O7           Mg9   2.298       .  S
O8          Mg40   2.270       .  S
Mg9          O15   2.151       .  S
Mg9          O23   2.283       .  S
Mg9          O11   2.305       .  S
C10          O48   1.273       .  A
C10          O16   1.275       .  A
C10        C1579   1.484       .  S
O11          C18   1.276       .  A
H12          C25   1.081       .  S
C13          O27   1.235       .  S
C13          O28   1.270       .  A
C13          H38   1.081       .  S
O14          C37   1.270       .  A
O15         Mg29   2.160       .  S
O16         Mg46   2.298       .  S
C17          O30   1.273       .  A
C17          O22   1.276       .  A
C17        C1689   1.488       .  S
C18          O45   1.273       .  A
C18        C1678   1.482       .  S
Mg19         O26   2.148       .  S
Mg19         O27   2.160       .  S
Mg19         O20   2.310       .  S
Mg19         O21   2.298       .  S
Mg19         O48   2.272       .  S
O21          C25   1.270       .  A
O22         Mg29   2.311       .  S
O23          C42   1.275       .  A
O24          C44   1.274       .  A
O24         Mg40   2.290       .  S
O26         Mg40   2.157       .  S
O26          C37   1.236       .  S
O27         Mg46   2.149       .  S
O28         Mg40   2.298       .  S
Mg29         O45   2.259       .  S
O30         Mg46   2.274       .  S
H31          C36   1.081       .  S
O32         Mg40   2.148       .  S
O32          C35   1.236       .  S
H33          C35   1.081       .  S
H34          C37   1.081       .  S
O39         Mg46   2.297       .  S
C42          O47   1.276       .  A
C42        C1612   1.489   1_455  S
O43          C44   1.273       .  A
C44        C1623   1.482       .  S
C49        C1568   1.487       .  S
C49          C50   1.421       .  A
C49          C54   1.406       .  A
C50        C1700   1.489       .  S
C50          C51   1.409       .  A
C51          H56   1.085       .  S
C51          C52   1.403       .  A
C52        C1513   1.484       .  S
C52          C53   1.413       .  A
C53        C1546   1.484       .  S
C53          C54   1.400       .  A
C54          H55   1.085       .  S
C57        C1491   1.482       .  S
C57          C58   1.413       .  A
C57          C62   1.401       .  A
C58        C1667   1.482       .  S
C58          C59   1.400       .  A
C59          H64   1.085       .  S
C59          C60   1.405       .  A
C60        C1458   1.484       .  S
C60          C61   1.420       .  A
C61        C1469   1.486       .  S
C61          C62   1.407       .  A
C62          H63   1.085       .  S
O65         Mg67   2.146       .  S
O65         Mg73   2.157       .  S
O65         C100   1.235       .  S
C66          O79   1.236       .  S
C66         O103   1.270       .  A
C66         H105   1.081       .  S
Mg67         O96   2.156       .  S
Mg67        O111   2.306       .  S
Mg67        O107   2.266       .  S
Mg67         O78   2.302       .  S
O68        Mg110   2.156       .  S
O68         Mg93   2.152       .  S
O68          C89   1.236       .  S
O69         C100   1.269       .  A
O69         Mg93   2.295       .  S
C70          O72   1.273       .  A
C70          O84   1.277       .  A
C70        C1436   1.487       .  S
O71          C99   1.271       .  A
O71         Mg73   2.300       .  S
O72        Mg104   2.266       .  S
Mg73         O79   2.141       .  S
Mg73         O87   2.271       .  S
Mg73         O75   2.309       .  S
C74         O112   1.274       .  A
C74          O80   1.275       .  A
C74        C1370   1.484       .  S
O75          C82   1.277       .  A
H76          C89   1.080       .  S
C77          O91   1.235       .  S
C77          O92   1.270       .  A
C77         H102   1.081       .  S
O78         C101   1.271       .  A
O79         Mg93   2.155       .  S
O80        Mg110   2.298       .  S
C81          O94   1.273       .  A
C81          O86   1.275       .  A
C81        C1381   1.484       .  S
C82         O109   1.274       .  A
C82        C1414   1.488       .  S
Mg83         O90   2.150       .  S
Mg83         O91   2.159       .  S
Mg83         O84   2.318       .  S
Mg83         O85   2.302       .  S
Mg83        O112   2.274       .  S
O85          C89   1.270       .  A
O86         Mg93   2.299       .  S
O87         C106   1.273       .  A
O88         C108   1.275       .  A
O88        Mg104   2.307       .  S
O90        Mg104   2.159       .  S
O90         C101   1.236       .  S
O91        Mg110   2.153       .  S
O92        Mg104   2.299       .  S
Mg93        O109   2.281       .  S
O94        Mg110   2.271       .  S
H95         C100   1.081       .  S
O96        Mg104   2.150       .  S
O96          C99   1.236       .  S
H97          C99   1.080       .  S
H98         C101   1.081       .  S
O103       Mg110   2.296       .  S
C106        O111   1.276       .  A
C106       C1337   1.486   1_565  S
O107        C108   1.272       .  A
C108       C1557   1.486       .  S
O113       Mg115   2.143       .  S
O113       Mg121   2.160       .  S
O113        C148   1.236       .  S
C114        O127   1.236       .  S
C114        O151   1.271       .  A
C114        H153   1.081       .  S
Mg115       O144   2.159       .  S
Mg115       O159   2.302       .  S
Mg115       O155   2.264       .  S
Mg115       O126   2.297       .  S
O116       Mg158   2.151       .  S
O116       Mg141   2.135       .  S
O116        C137   1.236       .  S
O117        C148   1.270       .  A
O117       Mg141   2.299       .  S
C118        O120   1.273       .  A
C118        O132   1.277       .  A
C118       C1502   1.484       .  S
O119        C147   1.270       .  A
O119       Mg121   2.298       .  S
O120       Mg152   2.263       .  S
Mg121       O127   2.148       .  S
Mg121       O135   2.274       .  S
Mg121       O123   2.302       .  S
C122        O160   1.274       .  A
C122        O128   1.276       .  A
C122       C1238   1.484   1_565  S
O123        C130   1.275       .  A
H124        C137   1.081       .  S
C125        O139   1.236       .  S
C125        O140   1.270       .  A
C125        H150   1.081       .  S
O126        C149   1.269       .  A
O127       Mg141   2.157       .  S
O128       Mg158   2.305       .  S
C129        O142   1.274       .  A
C129        O134   1.275       .  A
C129       C1271   1.488       .  S
C130        O157   1.271       .  A
C130       C1304   1.481       .  S
Mg131       O138   2.145       .  S
Mg131       O139   2.157       .  S
Mg131       O132   2.309       .  S
Mg131       O133   2.294       .  S
Mg131       O160   2.268       .  S
O133        C137   1.269       .  A
O134       Mg141   2.305       .  S
O135        C154   1.273       .  A
O136        C156   1.276       .  A
O136       Mg152   2.308       .  S
O138       Mg152   2.155       .  S
O138        C149   1.235       .  S
O139       Mg158   2.147       .  S
O140       Mg152   2.297       .  S
Mg141       O157   2.254       .  S
O142       Mg158   2.283       .  S
H143        C148   1.081       .  S
O144       Mg152   2.146       .  S
O144        C147   1.235       .  S
H145        C147   1.081       .  S
H146        C149   1.081       .  S
O151       Mg158   2.300       .  S
C154        O159   1.275       .  A
C154       C1249   1.486       .  S
O155        C156   1.273       .  A
C156       C1326   1.484       .  S
C161       C1315   1.486       .  S
C161        C162   1.417       .  A
C161        C166   1.400       .  A
C162       C1425   1.489       .  S
C162        C163   1.411       .  A
C163        H168   1.084       .  S
C163        C164   1.410       .  A
C164       C1194   1.491       .  S
C164        C165   1.416       .  A
C165       C1205   1.483       .  S
C165        C166   1.401       .  A
C166        H167   1.085       .  S
O169       Mg171   2.147   1_554  S
O169       Mg177   2.162   1_545  S
O169        C204   1.235       .  S
C170        O183   1.235       .  S
C170        O207   1.270       .  A
C170        H209   1.081       .  S
Mg171       O200   2.156   1_545  S
Mg171       O215   2.302   1_545  S
Mg171       O211   2.274   1_545  S
Mg171       O182   2.301       .  S
O172       Mg214   2.157   1_545  S
O172       Mg197   2.151       .  S
O172        C193   1.235       .  S
O173        C204   1.269       .  A
O173       Mg197   2.295       .  S
C174        O176   1.272       .  A
C174        O188   1.277       .  A
C174       C1161   1.486       .  S
O175        C203   1.269   1_554  A
O175       Mg177   2.296       .  S
O176       Mg208   2.257       .  S
Mg177       O183   2.147       .  S
Mg177       O191   2.271       .  S
Mg177       O179   2.302   1_565  S
C178        O216   1.273       .  A
C178        O184   1.276   1_556  A
C178       C1095   1.484       .  S
O179        C186   1.275       .  A
H180        C193   1.081       .  S
C181        O195   1.235       .  S
C181        O196   1.270       .  A
C181        H206   1.081   1_556  S
O182        C205   1.270       .  A
O183       Mg197   2.160   1_565  S
O184       Mg214   2.305   1_545  S
C185        O198   1.274       .  A
C185        O190   1.275       .  A
C185       C1480   1.486       .  S
C186        O213   1.273       .  A
C186       C1535   1.485       .  S
Mg187       O194   2.153       .  S
Mg187       O195   2.159   1_545  S
Mg187       O188   2.317   1_545  S
Mg187       O189   2.302       .  S
Mg187       O216   2.267       .  S
O189        C193   1.270   1_556  A
O190       Mg197   2.299       .  S
O191        C210   1.273       .  A
O192        C212   1.276       .  A
O192       Mg208   2.313       .  S
O194       Mg208   2.161   1_545  S
O194        C205   1.236       .  S
O195       Mg214   2.152   1_556  S
O196       Mg208   2.301       .  S
Mg197       O213   2.268       .  S
O198       Mg214   2.276   1_545  S
H199        C204   1.081   1_556  S
O200       Mg208   2.144       .  S
O200        C203   1.235       .  S
H201        C203   1.081       .  S
H202        C205   1.081       .  S
O207       Mg214   2.297       .  S
C210        O215   1.276   1_554  A
C210       C1128   1.485       .  S
O211        C212   1.273       .  A
C212       C1150   1.489       .  S
O217       Mg219   2.142   1_556  S
O217       Mg225   2.155       .  S
O217        C252   1.236       .  S
C218        O231   1.236       .  S
C218        O255   1.270       .  A
C218        H257   1.081       .  S
Mg219       O248   2.155       .  S
Mg219       O263   2.304       .  S
Mg219       O259   2.263       .  S
Mg219       O230   2.300       .  S
O220       Mg262   2.152       .  S
O220       Mg245   2.139       .  S
O220        C241   1.235       .  S
O221        C252   1.270       .  A
O221       Mg245   2.297       .  S
C222        O224   1.272       .  A
C222        O236   1.277       .  A
C222       C1524   1.484       .  S
O223        C251   1.270   1_556  A
O223       Mg225   2.298       .  S
O224       Mg256   2.256       .  S
Mg225       O231   2.146       .  S
Mg225       O239   2.268       .  S
Mg225       O227   2.305       .  S
C226        O264   1.274       .  A
C226        O232   1.276   1_554  A
C226       C1007   1.484       .  S
O227        C234   1.276       .  A
H228        C241   1.080       .  S
C229        O243   1.236       .  S
C229        O244   1.270       .  A
C229        H254   1.081   1_554  S
O230        C253   1.270       .  A
O231       Mg245   2.153       .  S
O232       Mg262   2.302       .  S
C233        O246   1.273       .  A
C233        O238   1.275       .  A
C233       C1073   1.484       .  S
C234        O261   1.272       .  A
C234       C1051   1.483       .  S
Mg235       O242   2.148       .  S
Mg235       O243   2.159       .  S
Mg235       O236   2.311       .  S
Mg235       O237   2.296       .  S
Mg235       O264   2.271       .  S
O237        C241   1.269   1_554  A
O238       Mg245   2.303       .  S
O239        C258   1.273       .  A
O240        C260   1.275       .  A
O240       Mg256   2.302       .  S
O242       Mg256   2.155       .  S
O242        C253   1.236       .  S
O243       Mg262   2.145   1_554  S
O244       Mg256   2.297       .  S
Mg245       O261   2.260       .  S
O246       Mg262   2.269       .  S
H247        C252   1.081   1_554  S
O248       Mg256   2.142       .  S
O248        C251   1.236       .  S
H249        C251   1.080       .  S
H250        C253   1.081       .  S
O255       Mg262   2.300       .  S
C258        O263   1.275   1_556  A
C258       C1040   1.484       .  S
O259        C260   1.272       .  A
C260       C1216   1.483       .  S
O265       Mg267   2.153   1_556  S
O265       Mg273   2.160   1_455  S
O265        C300   1.235       .  S
C266        O279   1.236       .  S
C266        O303   1.270       .  A
C266        H305   1.081       .  S
Mg267       O296   2.161   1_455  S
Mg267       O311   2.304   1_455  S
Mg267       O307   2.267   1_455  S
Mg267       O278   2.296       .  S
O268       Mg310   2.157   1_455  S
O268       Mg293   2.157       .  S
O268        C289   1.236       .  S
O269        C300   1.270       .  A
O269       Mg293   2.300       .  S
C270        O272   1.275       .  A
C270        O284   1.278       .  A
C270       C1183   1.492       .  S
O271        C299   1.271   1_556  A
O271       Mg273   2.302       .  S
O272       Mg304   2.284       .  S
Mg273       O279   2.150       .  S
Mg273       O287   2.277       .  S
Mg273       O275   2.320   1_655  S
C274        O312   1.273       .  A
C274        O280   1.276   1_554  A
C274        C952   1.484       .  S
O275        C282   1.278       .  A
H276        C289   1.081       .  S
C277        O291   1.235       .  S
C277        O292   1.270       .  A
C277        H302   1.081   1_554  S
O278        C301   1.270       .  A
O279       Mg293   2.159   1_655  S
O280       Mg310   2.307   1_455  S
C281        O294   1.273       .  A
C281        O286   1.277       .  A
C281        C963   1.488       .  S
C282        O309   1.275       .  A
C282        C996   1.492       .  S
Mg283       O290   2.143       .  S
Mg283       O291   2.155   1_455  S
Mg283       O284   2.319   1_455  S
Mg283       O285   2.304       .  S
Mg283       O312   2.267       .  S
O285        C289   1.271   1_554  A
O286       Mg293   2.318       .  S
O287        C306   1.274       .  A
O288        C308   1.276       .  A
O288       Mg304   2.309       .  S
O290       Mg304   2.158   1_455  S
O290        C301   1.236       .  S
O291       Mg310   2.151   1_554  S
O292       Mg304   2.298       .  S
Mg293       O309   2.285       .  S
O294       Mg310   2.268   1_455  S
H295        C300   1.081   1_554  S
O296       Mg304   2.157       .  S
O296        C299   1.236       .  S
H297        C299   1.081       .  S
H298        C301   1.081       .  S
O303       Mg310   2.298       .  S
C306        O311   1.276   1_556  A
C306        C919   1.487       .  S
O307        C308   1.273       .  A
C308       C1447   1.485       .  S
O313       Mg315   2.144       .  S
O313       Mg321   2.157       .  S
O313        C348   1.236       .  S
C314        O327   1.235       .  S
C314        O351   1.269       .  A
C314        H353   1.081       .  S
Mg315       O344   2.153       .  S
Mg315       O359   2.314       .  S
Mg315       O355   2.272       .  S
Mg315       O326   2.302       .  S
O316       Mg358   2.157       .  S
O316       Mg341   2.146       .  S
O316        C337   1.235       .  S
O317        C348   1.270       .  A
O317       Mg341   2.297       .  S
C318        O320   1.272       .  A
C318        O332   1.275       .  A
C318        C897   1.482       .  S
O319        C347   1.269       .  A
O319       Mg321   2.293       .  S
O320       Mg352   2.260       .  S
Mg321       O327   2.144       .  S
Mg321       O335   2.258       .  S
Mg321       O323   2.297       .  S
C322        O360   1.273       .  A
C322        O328   1.277       .  A
C322        C787   1.487       .  S
O323        C330   1.274       .  A
H324        C337   1.081       .  S
C325        O339   1.236       .  S
C325        O340   1.271       .  A
C325        H350   1.081       .  S
O326        C349   1.271       .  A
O327       Mg341   2.153       .  S
O328       Mg358   2.315       .  S
C329        O342   1.274       .  A
C329        O334   1.276       .  A
C329        C853   1.485       .  S
C330        O357   1.273       .  A
C330        C831   1.483       .  S
Mg331       O338   2.154       .  S
Mg331       O339   2.156       .  S
Mg331       O332   2.303       .  S
Mg331       O333   2.299       .  S
Mg331       O360   2.272       .  S
O333        C337   1.270       .  A
O334       Mg341   2.305       .  S
O335        C354   1.272       .  A
O336        C356   1.277       .  A
O336       Mg352   2.313       .  S
O338       Mg352   2.157       .  S
O338        C349   1.236       .  S
O339       Mg358   2.149       .  S
O340       Mg352   2.302       .  S
Mg341       O357   2.266       .  S
O342       Mg358   2.271       .  S
H343        C348   1.081       .  S
O344       Mg352   2.138       .  S
O344        C347   1.235       .  S
H345        C347   1.081       .  S
H346        C349   1.081       .  S
O351       Mg358   2.298       .  S
C354        O359   1.277       .  A
C354        C820   1.484   1_545  S
O355        C356   1.273       .  A
C356        C875   1.487       .  S
C361        C985   1.492       .  S
C361        C362   1.416       .  A
C361        C366   1.411       .  A
C362       C1084   1.482       .  S
C362        C363   1.401       .  A
C363        H368   1.085       .  S
C363        C364   1.402       .  A
C364        C864   1.490       .  S
C364        C365   1.419       .  A
C365        C776   1.493       .  S
C365        C366   1.413       .  A
C366        H367   1.084       .  S
C369        C974   1.489       .  S
C369        C370   1.422       .  A
C369        C374   1.411       .  A
C370       C1139   1.494       .  S
C370        C371   1.407       .  A
C371        H376   1.085       .  S
C371        C372   1.402       .  A
C372        C842   1.481       .  S
C372        C373   1.413       .  A
C373        C754   1.490       .  S
C373        C374   1.403       .  A
C374        H375   1.084       .  S
O377       Mg379   2.154       .  S
O377       Mg385   2.158       .  S
O377        C412   1.235       .  S
C378        O391   1.236       .  S
C378        O415   1.270       .  A
C378        H417   1.081       .  S
Mg379       O408   2.157       .  S
Mg379       O423   2.302       .  S
Mg379       O419   2.281       .  S
Mg379       O390   2.295       .  S
O380       Mg422   2.161       .  S
O380       Mg405   2.157       .  S
O380        C401   1.236       .  S
O381        C412   1.269       .  A
O381       Mg405   2.298       .  S
C382        O384   1.274       .  A
C382        O396   1.276       .  A
C382        C710   1.487       .  S
O383        C411   1.270       .  A
O383       Mg385   2.299       .  S
O384       Mg416   2.274       .  S
Mg385       O391   2.150       .  S
Mg385       O399   2.270       .  S
Mg385       O387   2.315       .  S
C386        O424   1.273       .  A
C386        O392   1.276       .  A
C386        C644   1.488   1_545  S
O387        C394   1.277       .  A
H388        C401   1.080       .  S
C389        O403   1.236       .  S
C389        O404   1.270       .  A
C389        H414   1.081       .  S
O390        C413   1.270       .  A
O391       Mg405   2.164       .  S
O392       Mg422   2.309       .  S
C393        O406   1.272       .  A
C393        O398   1.276       .  A
C393        C688   1.486       .  S
C394        O421   1.275       .  A
C394        C765   1.491       .  S
Mg395       O402   2.143       .  S
Mg395       O403   2.154       .  S
Mg395       O396   2.309       .  S
Mg395       O397   2.303       .  S
Mg395       O424   2.274       .  S
O397        C401   1.271       .  A
O398       Mg405   2.312       .  S
O399        C418   1.274       .  A
O400        C420   1.276       .  A
O400       Mg416   2.301       .  S
O402       Mg416   2.157       .  S
O402        C413   1.236       .  S
O403       Mg422   2.146       .  S
O404       Mg416   2.298       .  S
Mg405       O421   2.282       .  S
O406       Mg422   2.262       .  S
H407        C412   1.081       .  S
O408       Mg416   2.146       .  S
O408        C411   1.236       .  S
H409        C411   1.080       .  S
H410        C413   1.081       .  S
O415       Mg422   2.299       .  S
C418        O423   1.276       .  A
C418        C666   1.483       .  S
O419        C420   1.274       .  A
C420        C721   1.487       .  S
O425       Mg427   2.141       .  S
O425       Mg433   2.154       .  S
O425        C460   1.236       .  S
C426        O439   1.236       .  S
C426        O463   1.270       .  A
C426        H465   1.081       .  S
Mg427       O456   2.156       .  S
Mg427       O471   2.307       .  S
Mg427       O467   2.261       .  S
Mg427       O438   2.302       .  S
O428       Mg470   2.159       .  S
O428       Mg453   2.147       .  S
O428        C449   1.235       .  S
O429        C460   1.270       .  A
O429       Mg453   2.297       .  S
C430        O432   1.274       .  A
C430        O444   1.277       .  A
C430        C743   1.487       .  S
O431        C459   1.270       .  A
O431       Mg433   2.300       .  S
O432       Mg464   2.276       .  S
Mg433       O439   2.141       .  S
Mg433       O447   2.268       .  S
Mg433       O435   2.303       .  S
C434        O472   1.274       .  A
C434        O440   1.277       .  A
C434        C523   1.488   1_655  S
O435        C442   1.276       .  A
H436        C449   1.081       .  S
C437        O451   1.235       .  S
C437        O452   1.270       .  A
C437        H462   1.081       .  S
O438        C461   1.271       .  A
O439       Mg453   2.153       .  S
O440       Mg470   2.311       .  S
C441        O454   1.273       .  A
C441        O446   1.274       .  A
C441        C611   1.481       .  S
C442        O469   1.273       .  A
C442        C600   1.484       .  S
Mg443       O450   2.157       .  S
Mg443       O451   2.155       .  S
Mg443       O444   2.311       .  S
Mg443       O445   2.299       .  S
Mg443       O472   2.280       .  S
O445        C449   1.270       .  A
O446       Mg453   2.289       .  S
O447        C466   1.273       .  A
O448        C468   1.277       .  A
O448       Mg464   2.319       .  S
O450       Mg464   2.159       .  S
O450        C461   1.236       .  S
O451       Mg470   2.146       .  S
O452       Mg464   2.300       .  S
Mg453       O469   2.268       .  S
O454       Mg470   2.269       .  S
H455        C460   1.081       .  S
O456       Mg464   2.154       .  S
O456        C459   1.236       .  S
H457        C459   1.081       .  S
H458        C461   1.081       .  S
O463       Mg470   2.298       .  S
C466        O471   1.276       .  A
C466        C556   1.485       .  S
O467        C468   1.272       .  A
C468        C578   1.487       .  S
C473       C1172   1.487       .  S
C473        C474   1.414       .  A
C473        C478   1.403       .  A
C474       C1062   1.483       .  S
C474        C475   1.402       .  A
C475        H480   1.085       .  S
C475        C476   1.408       .  A
C476        C567   1.490       .  S
C476        C477   1.421       .  A
C477        C677   1.489       .  S
C477        C478   1.408       .  A
C478        H479   1.085       .  S
C481       C1634   1.482       .  S
C481        C482   1.415       .  A
C481        C486   1.403       .  A
C482       C1392   1.485       .  S
C482        C483   1.403   1_455  A
C483        H488   1.085       .  S
C483        C484   1.404       .  A
C484        C622   1.481       .  S
C484        C485   1.416       .  A
C485        C732   1.487       .  S
C485        C486   1.403   1_655  A
C486        H487   1.085       .  S
C489       C1656   1.486       .  S
C489        C490   1.417       .  A
C489        C494   1.403       .  A
C490       C1293   1.480       .  S
C490        C491   1.403       .  A
C491        H496   1.084       .  S
C491        C492   1.401       .  A
C492        C589   1.483       .  S
C492        C493   1.416       .  A
C493        C908   1.481       .  S
C493        C494   1.403       .  A
C494        H495   1.084       .  S
C497       C1282   1.490       .  S
C497        C498   1.418       .  A
C497        C502   1.406   1_565  A
C498       C1403   1.488       .  S
C498        C499   1.407       .  A
C499        H504   1.085       .  S
C499        C500   1.406   1_565  A
C500        C886   1.489       .  S
C500        C501   1.418       .  A
C501        C699   1.489       .  S
C501        C502   1.406       .  A
C502        H503   1.085       .  S
C505        C941   1.487       .  S
C505        C506   1.417   1_565  A
C505        C510   1.413   1_454  A
C506       C1117   1.487       .  S
C506        C507   1.416       .  A
C507       C1018   1.485       .  S
C507        C508   1.416   1_455  A
C508        C930   1.490   1_554  S
C508        C509   1.416   1_544  A
C509       C1106   1.484       .  S
C509        C510   1.413       .  A
C510       C1029   1.485       .  S
C511       C1601   1.491       .  S
C511        C512   1.417       .  A
C511        C516   1.415       .  A
C512       C1359   1.487       .  S
C512        C513   1.416       .  A
C513       C1260   1.488       .  S
C513        C514   1.415       .  A
C514       C1590   1.486       .  S
C514        C515   1.417       .  A
C515       C1348   1.491       .  S
C515        C516   1.416       .  A
C516       C1227   1.484       .  S
C517        C545   1.486       .  S
C517        C518   1.419       .  A
C517        C522   1.416       .  A
C518        C633   1.493       .  S
C518        C519   1.418       .  A
C519        C809   1.485       .  S
C519        C520   1.414       .  A
C520        C534   1.488       .  S
C520        C521   1.414       .  A
C521        C655   1.485       .  S
C521        C522   1.414       .  A
C522        C798   1.488       .  S
C523        C524   1.409       .  A
C523        C528   1.409       .  A
C524        H537   1.083       .  S
C524        C525   1.400       .  A
C525        H538   1.084       .  S
C525        C526   1.400       .  A
C526        C527   1.400       .  A
C526        C529   1.445       .  S
C527        H539   1.083       .  S
C527        C528   1.401       .  A
C528        H540   1.083       .  S
C529        C530   1.209       .  T
C530        C531   1.445       .  S
C531        C532   1.403       .  A
C531        C536   1.401       .  A
C532        H541   1.083       .  S
C532        C533   1.402       .  A
C533        H542   1.083       .  S
C533        C534   1.404       .  A
C534        C535   1.404       .  A
C535        H543   1.083       .  S
C535        C536   1.398       .  A
C536        H544   1.083       .  S
C545        C546   1.405       .  A
C545        C550   1.403       .  A
C546        H559   1.083       .  S
C546        C547   1.398       .  A
C547        H560   1.083       .  S
C547        C548   1.400       .  A
C548        C549   1.402       .  A
C548        C551   1.441       .  S
C549        H561   1.083       .  S
C549        C550   1.399       .  A
C550        H562   1.083       .  S
C551        C552   1.207       .  T
C552        C553   1.442       .  S
C553        C554   1.399       .  A
C553        C558   1.400       .  A
C554        H563   1.084       .  S
C554        C555   1.399       .  A
C555        H564   1.083       .  S
C555        C556   1.408       .  A
C556        C557   1.409       .  A
C557        H565   1.083       .  S
C557        C558   1.400       .  A
C558        H566   1.083       .  S
C567        C568   1.407       .  A
C567        C572   1.407       .  A
C568        H581   1.083       .  S
C568        C569   1.398       .  A
C569        H582   1.084       .  S
C569        C570   1.400       .  A
C570        C571   1.402       .  A
C570        C573   1.445       .  S
C571        H583   1.083       .  S
C571        C572   1.402       .  A
C572        H584   1.083       .  S
C573        C574   1.209       .  T
C574        C575   1.445       .  S
C575        C576   1.400       .  A
C575        C580   1.401       .  A
C576        H585   1.083       .  S
C576        C577   1.401       .  A
C577        H586   1.083       .  S
C577        C578   1.410       .  A
C578        C579   1.408       .  A
C579        H587   1.083       .  S
C579        C580   1.401       .  A
C580        H588   1.084       .  S
C589        C590   1.405       .  A
C589        C594   1.404       .  A
C590        H603   1.084       .  S
C590        C591   1.396       .  A
C591        H604   1.083       .  S
C591        C592   1.400       .  A
C592        C593   1.402       .  A
C592        C595   1.440       .  S
C593        H605   1.084       .  S
C593        C594   1.401       .  A
C594        H606   1.083       .  S
C595        C596   1.206       .  T
C596        C597   1.440       .  S
C597        C598   1.400       .  A
C597        C602   1.399       .  A
C598        H607   1.084       .  S
C598        C599   1.400       .  A
C599        H608   1.083       .  S
C599        C600   1.409       .  A
C600        C601   1.408       .  A
C601        H609   1.083       .  S
C601        C602   1.397       .  A
C602        H610   1.083       .  S
C611        C612   1.408       .  A
C611        C616   1.408       .  A
C612        H625   1.083       .  S
C612        C613   1.399       .  A
C613        H626   1.083       .  S
C613        C614   1.400       .  A
C614        C615   1.398       .  A
C614        C617   1.438       .  S
C615        H627   1.084       .  S
C615        C616   1.396       .  A
C616        H628   1.083       .  S
C617        C618   1.205       .  T
C618        C619   1.438       .  S
C619        C620   1.400       .  A
C619        C624   1.401       .  A
C620        H629   1.084       .  S
C620        C621   1.397       .  A
C621        H630   1.083       .  S
C621        C622   1.405       .  A
C622        C623   1.405   1_655  A
C623        H631   1.083       .  S
C623        C624   1.399   1_455  A
C624        H632   1.083   1_655  S
C633        C634   1.405       .  A
C633        C638   1.405       .  A
C634        H647   1.083       .  S
C634        C635   1.400       .  A
C635        H648   1.083       .  S
C635        C636   1.401       .  A
C636        C637   1.402       .  A
C636        C639   1.446       .  S
C637        H649   1.083       .  S
C637        C638   1.401       .  A
C638        H650   1.083       .  S
C639        C640   1.210       .  T
C640        C641   1.446       .  S
C641        C642   1.401       .  A
C641        C646   1.400       .  A
C642        H651   1.083       .  S
C642        C643   1.402       .  A
C643        H652   1.083       .  S
C643        C644   1.409       .  A
C644        C645   1.409       .  A
C645        H653   1.083       .  S
C645        C646   1.400       .  A
C646        H654   1.084       .  S
C655        C656   1.402       .  A
C655        C660   1.404       .  A
C656        H669   1.083       .  S
C656        C657   1.398       .  A
C657        H670   1.083       .  S
C657        C658   1.401       .  A
C658        C659   1.401       .  A
C658        C661   1.441       .  S
C659        H671   1.083       .  S
C659        C660   1.399       .  A
C660        H672   1.083       .  S
C661        C662   1.207       .  T
C662        C663   1.441       .  S
C663        C664   1.400       .  A
C663        C668   1.400       .  A
C664        H673   1.083       .  S
C664        C665   1.399       .  A
C665        H674   1.083       .  S
C665        C666   1.408   1_455  A
C666        C667   1.408   1_655  A
C667        H675   1.083   1_455  S
C667        C668   1.399       .  A
C668        H676   1.084       .  S
C677        C678   1.407       .  A
C677        C682   1.406       .  A
C678        H691   1.083       .  S
C678        C679   1.399       .  A
C679        H692   1.084       .  S
C679        C680   1.400       .  A
C680        C681   1.401       .  A
C680        C683   1.444       .  S
C681        H693   1.083       .  S
C681        C682   1.400       .  A
C682        H694   1.083       .  S
C683        C684   1.208       .  T
C684        C685   1.444   1_565  S
C685        C686   1.400       .  A
C685        C690   1.400       .  A
C686        H695   1.084       .  S
C686        C687   1.400       .  A
C687        H696   1.083       .  S
C687        C688   1.408       .  A
C688        C689   1.409       .  A
C689        H697   1.083       .  S
C689        C690   1.400       .  A
C690        H698   1.083   1_545  S
C699        C700   1.405       .  A
C699        C704   1.407       .  A
C700        H713   1.083   1_545  S
C700        C701   1.399       .  A
C701        H714   1.084       .  S
C701        C702   1.401       .  A
C702        C703   1.401       .  A
C702        C705   1.445       .  S
C703        H715   1.083       .  S
C703        C704   1.401       .  A
C704        H716   1.083       .  S
C705        C706   1.209       .  T
C706        C707   1.444       .  S
C707        C708   1.401       .  A
C707        C712   1.400       .  A
C708        H717   1.083       .  S
C708        C709   1.402       .  A
C709        H718   1.083       .  S
C709        C710   1.409       .  A
C710        C711   1.408       .  A
C711        H719   1.083       .  S
C711        C712   1.399       .  A
C712        H720   1.083       .  S
C721        C722   1.408       .  A
C721        C726   1.409       .  A
C722        H735   1.083       .  S
C722        C723   1.401       .  A
C723        H736   1.083       .  S
C723        C724   1.401       .  A
C724        C725   1.399       .  A
C724        C727   1.443       .  S
C725        H737   1.084       .  S
C725        C726   1.398       .  A
C726        H738   1.083       .  S
C727        C728   1.208       .  T
C728        C729   1.443       .  S
C729        C730   1.402       .  A
C729        C734   1.399       .  A
C730        H739   1.083       .  S
C730        C731   1.401       .  A
C731        H740   1.083       .  S
C731        C732   1.406       .  A
C732        C733   1.406   1_655  A
C733        H741   1.083       .  S
C733        C734   1.398   1_455  A
C734        H742   1.084   1_655  S
C743        C744   1.409       .  A
C743        C748   1.409       .  A
C744        H757   1.083       .  S
C744        C745   1.401   1_655  A
C745        H758   1.083       .  S
C745        C746   1.401   1_455  A
C746        C747   1.401       .  A
C746        C749   1.446   1_655  S
C747        H759   1.084       .  S
C747        C748   1.401       .  A
C748        H760   1.083       .  S
C749        C750   1.210       .  T
C750        C751   1.446       .  S
C751        C752   1.403       .  A
C751        C756   1.400       .  A
C752        H761   1.084       .  S
C752        C753   1.403       .  A
C753        H762   1.083       .  S
C753        C754   1.405       .  A
C754        C755   1.406       .  A
C755        H763   1.083       .  S
C755        C756   1.399       .  A
C756        H764   1.083       .  S
C765        C766   1.409       .  A
C765        C770   1.409       .  A
C766        H779   1.083       .  S
C766        C767   1.401   1_655  A
C767        H780   1.083       .  S
C767        C768   1.400   1_455  A
C768        C769   1.402       .  A
C768        C771   1.448   1_655  S
C769        H781   1.083       .  S
C769        C770   1.403       .  A
C770        H782   1.083       .  S
C771        C772   1.211       .  T
C772        C773   1.448       .  S
C773        C774   1.400       .  A
C773        C778   1.403       .  A
C774        H783   1.083       .  S
C774        C775   1.400       .  A
C775        H784   1.083       .  S
C775        C776   1.408       .  A
C776        C777   1.406       .  A
C777        H785   1.083       .  S
C777        C778   1.403       .  A
C778        H786   1.084       .  S
C787        C788   1.409       .  A
C787        C792   1.409       .  A
C788        H801   1.083       .  S
C788        C789   1.401       .  A
C789        H802   1.084       .  S
C789        C790   1.401       .  A
C790        C791   1.400       .  A
C790        C793   1.445       .  S
C791        H803   1.083       .  S
C791        C792   1.400       .  A
C792        H804   1.083       .  S
C793        C794   1.209       .  T
C794        C795   1.444       .  S
C795        C796   1.402       .  A
C795        C800   1.401       .  A
C796        H805   1.083       .  S
C796        C797   1.401       .  A
C797        H806   1.083       .  S
C797        C798   1.404       .  A
C798        C799   1.404       .  A
C799        H807   1.083       .  S
C799        C800   1.399       .  A
C800        H808   1.083       .  S
C809        C810   1.404       .  A
C809        C814   1.403       .  A
C810        H823   1.083       .  S
C810        C811   1.399       .  A
C811        H824   1.083       .  S
C811        C812   1.401       .  A
C812        C813   1.401       .  A
C812        C815   1.441       .  S
C813        H825   1.083       .  S
C813        C814   1.398       .  A
C814        H826   1.083       .  S
C815        C816   1.207       .  T
C816        C817   1.441       .  S
C817        C818   1.400       .  A
C817        C822   1.399       .  A
C818        H827   1.083       .  S
C818        C819   1.400       .  A
C819        H828   1.083       .  S
C819        C820   1.408       .  A
C820        C821   1.409       .  A
C821        H829   1.083       .  S
C821        C822   1.398       .  A
C822        H830   1.084       .  S
C831        C832   1.407       .  A
C831        C836   1.409       .  A
C832        H845   1.083       .  S
C832        C833   1.398       .  A
C833        H846   1.084       .  S
C833        C834   1.399   1_545  A
C834        C835   1.399       .  A
C834        C837   1.440       .  S
C835        H847   1.083       .  S
C835        C836   1.399   1_565  A
C836        H848   1.083       .  S
C837        C838   1.206       .  T
C838        C839   1.439       .  S
C839        C840   1.401       .  A
C839        C844   1.400       .  A
C840        H849   1.083       .  S
C840        C841   1.400       .  A
C841        H850   1.083       .  S
C841        C842   1.404       .  A
C842        C843   1.404       .  A
C843        H851   1.083       .  S
C843        C844   1.397       .  A
C844        H852   1.083       .  S
C853        C854   1.409       .  A
C853        C858   1.408       .  A
C854        H867   1.083       .  S
C854        C855   1.400       .  A
C855        H868   1.084       .  S
C855        C856   1.400       .  A
C856        C857   1.400       .  A
C856        C859   1.443       .  S
C857        H869   1.083       .  S
C857        C858   1.400       .  A
C858        H870   1.083       .  S
C859        C860   1.208       .  T
C860        C861   1.444       .  S
C861        C862   1.402       .  A
C861        C866   1.400       .  A
C862        H871   1.083       .  S
C862        C863   1.401       .  A
C863        H872   1.083       .  S
C863        C864   1.407       .  A
C864        C865   1.407       .  A
C865        H873   1.083       .  S
C865        C866   1.398       .  A
C866        H874   1.084       .  S
C875        C876   1.409       .  A
C875        C880   1.409       .  A
C876        H889   1.083       .  S
C876        C877   1.400       .  A
C877        H890   1.084       .  S
C877        C878   1.400       .  A
C878        C879   1.401       .  A
C878        C881   1.445       .  S
C879        H891   1.083       .  S
C879        C880   1.401       .  A
C880        H892   1.083       .  S
C881        C882   1.209       .  T
C882        C883   1.445       .  S
C883        C884   1.401       .  A
C883        C888   1.402       .  A
C884        H893   1.083   1_545  S
C884        C885   1.399   1_545  A
C885        H894   1.083       .  S
C885        C886   1.406   1_565  A
C886        C887   1.406       .  A
C887        H895   1.083       .  S
C887        C888   1.401       .  A
C888        H896   1.084       .  S
C897        C898   1.408       .  A
C897        C902   1.408       .  A
C898        H911   1.083       .  S
C898        C899   1.398       .  A
C899        H912   1.083       .  S
C899        C900   1.399       .  A
C900        C901   1.399       .  A
C900        C903   1.439       .  S
C901        H913   1.084       .  S
C901        C902   1.398       .  A
C902        H914   1.083       .  S
C903        C904   1.205       .  T
C904        C905   1.439       .  S
C905        C906   1.399       .  A
C905        C910   1.401       .  A
C906        H915   1.083       .  S
C906        C907   1.397       .  A
C907        H916   1.083       .  S
C907        C908   1.405       .  A
C908        C909   1.403       .  A
C909        H917   1.083       .  S
C909        C910   1.399       .  A
C910        H918   1.083       .  S
C919        C920   1.409   1_556  A
C919        C924   1.408       .  A
C920        H933   1.083       .  S
C920        C921   1.400       .  A
C921        H934   1.084       .  S
C921        C922   1.400   1_554  A
C922        C923   1.401       .  A
C922        C925   1.444       .  S
C923        H935   1.083       .  S
C923        C924   1.401       .  A
C924        H936   1.083       .  S
C925        C926   1.209       .  T
C926        C927   1.444       .  S
C927        C928   1.401       .  A
C927        C932   1.402   1_556  A
C928        H937   1.083       .  S
C928        C929   1.399       .  A
C929        H938   1.083       .  S
C929        C930   1.404       .  A
C930        C931   1.404   1_656  A
C931        H939   1.083       .  S
C931        C932   1.401   1_455  A
C932        H940   1.083   1_655  S
C941        C942   1.404   1_455  A
C941        C946   1.404   1_554  A
C942        H955   1.083       .  S
C942        C943   1.399       .  A
C943        H956   1.083       .  S
C943        C944   1.401   1_655  A
C944        C945   1.401   1_554  A
C944        C947   1.441       .  S
C945        H957   1.083       .  S
C945        C946   1.398       .  A
C946        H958   1.083       .  S
C947        C948   1.207       .  T
C948        C949   1.441       .  S
C949        C950   1.400   1_554  A
C949        C954   1.399       .  A
C950        H959   1.084       .  S
C950        C951   1.399       .  A
C951        H960   1.083       .  S
C951        C952   1.409   1_556  A
C952        C953   1.408       .  A
C953        H961   1.083       .  S
C953        C954   1.399       .  A
C954        H962   1.084       .  S
C963        C964   1.409       .  A
C963        C968   1.409       .  A
C964        H977   1.083       .  S
C964        C965   1.401       .  A
C965        H978   1.084       .  S
C965        C966   1.401       .  A
C966        C967   1.400       .  A
C966        C969   1.445       .  S
C967        H979   1.083       .  S
C967        C968   1.400       .  A
C968        H980   1.083       .  S
C969        C970   1.209       .  T
C970        C971   1.445       .  S
C971        C972   1.400       .  A
C971        C976   1.402       .  A
C972        H981   1.083       .  S
C972        C973   1.400       .  A
C973        H982   1.083       .  S
C973        C974   1.406       .  A
C974        C975   1.407       .  A
C975        H983   1.083       .  S
C975        C976   1.401       .  A
C976        H984   1.083       .  S
C985        C986   1.407       .  A
C985        C990   1.406       .  A
C986        H999   1.083       .  S
C986        C987   1.402       .  A
C987       H1000   1.083       .  S
C987        C988   1.402       .  A
C988        C989   1.403       .  A
C988        C991   1.451       .  S
C989       H1001   1.084       .  S
C989        C990   1.403       .  A
C990       H1002   1.083       .  S
C991        C992   1.213       .  T
C992        C993   1.451       .  S
C993        C994   1.402       .  A
C993        C998   1.401       .  A
C994       H1003   1.084       .  S
C994        C995   1.404       .  A
C995       H1004   1.083       .  S
C995        C996   1.410       .  A
C996        C997   1.409       .  A
C997       H1005   1.083       .  S
C997        C998   1.402       .  A
C998       H1006   1.083       .  S
C1007      C1008   1.409   1_554  A
C1007      C1012   1.408       .  A
C1008      H1021   1.083       .  S
C1008      C1009   1.399       .  A
C1009      H1022   1.084       .  S
C1009      C1010   1.399   1_556  A
C1010      C1011   1.400       .  A
C1010      C1013   1.440       .  S
C1011      H1023   1.083       .  S
C1011      C1012   1.399       .  A
C1012      H1024   1.083       .  S
C1013      C1014   1.206       .  T
C1014      C1015   1.440       .  S
C1015      C1016   1.401       .  A
C1015      C1020   1.400   1_554  A
C1016      H1025   1.083       .  S
C1016      C1017   1.399       .  A
C1017      H1026   1.083       .  S
C1017      C1018   1.404       .  A
C1018      C1019   1.404   1_554  A
C1019      H1027   1.083       .  S
C1019      C1020   1.397       .  A
C1020      H1028   1.083       .  S
C1029      C1030   1.404       .  A
C1029      C1034   1.403   1_556  A
C1030      H1043   1.083       .  S
C1030      C1031   1.399       .  A
C1031      H1044   1.083       .  S
C1031      C1032   1.401       .  A
C1032      C1033   1.401   1_556  A
C1032      C1035   1.441       .  S
C1033      H1045   1.083       .  S
C1033      C1034   1.398       .  A
C1034      H1046   1.083       .  S
C1035      C1036   1.207       .  T
C1036      C1037   1.441       .  S
C1037      C1038   1.400   1_556  A
C1037      C1042   1.400       .  A
C1038      H1047   1.084       .  S
C1038      C1039   1.399       .  A
C1039      H1048   1.083       .  S
C1039      C1040   1.408   1_554  A
C1040      C1041   1.408       .  A
C1041      H1049   1.083       .  S
C1041      C1042   1.399       .  A
C1042      H1050   1.083       .  S
C1051      C1052   1.408       .  A
C1051      C1056   1.408       .  A
C1052      H1065   1.083       .  S
C1052      C1053   1.398       .  A
C1053      H1066   1.084       .  S
C1053      C1054   1.399       .  A
C1054      C1055   1.400       .  A
C1054      C1057   1.440       .  S
C1055      H1067   1.083       .  S
C1055      C1056   1.399       .  A
C1056      H1068   1.083       .  S
C1057      C1058   1.206       .  T
C1058      C1059   1.440       .  S
C1059      C1060   1.400       .  A
C1059      C1064   1.401       .  A
C1060      H1069   1.083       .  S
C1060      C1061   1.397       .  A
C1061      H1070   1.083       .  S
C1061      C1062   1.405       .  A
C1062      C1063   1.404       .  A
C1063      H1071   1.083       .  S
C1063      C1064   1.400       .  A
C1064      H1072   1.084       .  S
C1073      C1074   1.409       .  A
C1073      C1078   1.408       .  A
C1074      H1087   1.083       .  S
C1074      C1075   1.398       .  A
C1075      H1088   1.084       .  S
C1075      C1076   1.399       .  A
C1076      C1077   1.400       .  A
C1076      C1079   1.441       .  S
C1077      H1089   1.083       .  S
C1077      C1078   1.400       .  A
C1078      H1090   1.083       .  S
C1079      C1080   1.207       .  T
C1080      C1081   1.441       .  S
C1081      C1082   1.400       .  A
C1081      C1086   1.402       .  A
C1082      H1091   1.084       .  S
C1082      C1083   1.398       .  A
C1083      H1092   1.083       .  S
C1083      C1084   1.405       .  A
C1084      C1085   1.404       .  A
C1085      H1093   1.083       .  S
C1085      C1086   1.400       .  A
C1086      H1094   1.083       .  S
C1095      C1096   1.408       .  A
C1095      C1100   1.409   1_556  A
C1096      H1109   1.083       .  S
C1096      C1097   1.399       .  A
C1097      H1110   1.084       .  S
C1097      C1098   1.399       .  A
C1098      C1099   1.399   1_556  A
C1098      C1101   1.440       .  S
C1099      H1111   1.084       .  S
C1099      C1100   1.398       .  A
C1100      H1112   1.083       .  S
C1101      C1102   1.206       .  T
C1102      C1103   1.439   1_545  S
C1103      C1104   1.400   1_566  A
C1103      C1108   1.401       .  A
C1104      H1113   1.083       .  S
C1104      C1105   1.396       .  A
C1105      H1114   1.083       .  S
C1105      C1106   1.403   1_544  A
C1106      C1107   1.404       .  A
C1107      H1115   1.083       .  S
C1107      C1108   1.399       .  A
C1108      H1116   1.083       .  S
C1117      C1118   1.405   1_545  A
C1117      C1122   1.403   1_554  A
C1118      H1131   1.083       .  S
C1118      C1119   1.398       .  A
C1119      H1132   1.083       .  S
C1119      C1120   1.400       .  A
C1120      C1121   1.402   1_564  A
C1120      C1123   1.443       .  S
C1121      H1133   1.083       .  S
C1121      C1122   1.400       .  A
C1122      H1134   1.083       .  S
C1123      C1124   1.208       .  T
C1124      C1125   1.443       .  S
C1125      C1126   1.399   1_554  A
C1125      C1130   1.401       .  A
C1126      H1135   1.084       .  S
C1126      C1127   1.398       .  A
C1127      H1136   1.083       .  S
C1127      C1128   1.409   1_556  A
C1128      C1129   1.408       .  A
C1129      H1137   1.083       .  S
C1129      C1130   1.401       .  A
C1130      H1138   1.083       .  S
C1139      C1140   1.408       .  A
C1139      C1144   1.407       .  A
C1140      H1153   1.083       .  S
C1140      C1141   1.400       .  A
C1141      H1154   1.084       .  S
C1141      C1142   1.401       .  A
C1142      C1143   1.402       .  A
C1142      C1145   1.448       .  S
C1143      H1155   1.083       .  S
C1143      C1144   1.403       .  A
C1144      H1156   1.083       .  S
C1145      C1146   1.211       .  T
C1146      C1147   1.448       .  S
C1147      C1148   1.401       .  A
C1147      C1152   1.401       .  A
C1148      H1157   1.083       .  S
C1148      C1149   1.402       .  A
C1149      H1158   1.083       .  S
C1149      C1150   1.409       .  A
C1150      C1151   1.409       .  A
C1151      H1159   1.083       .  S
C1151      C1152   1.401       .  A
C1152      H1160   1.084       .  S
C1161      C1162   1.409       .  A
C1161      C1166   1.409       .  A
C1162      H1175   1.083       .  S
C1162      C1163   1.398       .  A
C1163      H1176   1.084       .  S
C1163      C1164   1.399       .  A
C1164      C1165   1.401       .  A
C1164      C1167   1.443       .  S
C1165      H1177   1.083       .  S
C1165      C1166   1.401       .  A
C1166      H1178   1.083       .  S
C1167      C1168   1.208       .  T
C1168      C1169   1.443       .  S
C1169      C1170   1.401       .  A
C1169      C1174   1.400       .  A
C1170      H1179   1.083       .  S
C1170      C1171   1.400       .  A
C1171      H1180   1.083       .  S
C1171      C1172   1.405       .  A
C1172      C1173   1.407       .  A
C1173      H1181   1.083       .  S
C1173      C1174   1.399       .  A
C1174      H1182   1.083       .  S
C1183      C1184   1.409       .  A
C1183      C1188   1.409       .  A
C1184      H1197   1.083       .  S
C1184      C1185   1.402       .  A
C1185      H1198   1.083       .  S
C1185      C1186   1.401       .  A
C1186      C1187   1.402       .  A
C1186      C1189   1.450       .  S
C1187      H1199   1.084       .  S
C1187      C1188   1.403       .  A
C1188      H1200   1.083       .  S
C1189      C1190   1.212       .  T
C1190      C1191   1.450       .  S
C1191      C1192   1.401       .  A
C1191      C1196   1.403       .  A
C1192      H1201   1.083       .  S
C1192      C1193   1.401       .  A
C1193      H1202   1.083       .  S
C1193      C1194   1.407       .  A
C1194      C1195   1.406       .  A
C1195      H1203   1.083       .  S
C1195      C1196   1.404       .  A
C1196      H1204   1.083       .  S
C1205      C1206   1.405       .  A
C1205      C1210   1.405       .  A
C1206      H1219   1.083       .  S
C1206      C1207   1.399       .  A
C1207      H1220   1.083       .  S
C1207      C1208   1.401       .  A
C1208      C1209   1.399       .  A
C1208      C1211   1.440       .  S
C1209      H1221   1.084       .  S
C1209      C1210   1.397       .  A
C1210      H1222   1.083       .  S
C1211      C1212   1.206       .  T
C1212      C1213   1.440       .  S
C1213      C1214   1.399       .  A
C1213      C1218   1.400       .  A
C1214      H1223   1.084       .  S
C1214      C1215   1.398       .  A
C1215      H1224   1.083       .  S
C1215      C1216   1.408       .  A
C1216      C1217   1.408       .  A
C1217      H1225   1.083       .  S
C1217      C1218   1.399       .  A
C1218      H1226   1.083       .  S
C1227      C1228   1.403       .  A
C1227      C1232   1.404       .  A
C1228      H1241   1.083       .  S
C1228      C1229   1.399       .  A
C1229      H1242   1.083       .  S
C1229      C1230   1.401       .  A
C1230      C1231   1.400       .  A
C1230      C1233   1.440       .  S
C1231      H1243   1.083       .  S
C1231      C1232   1.398       .  A
C1232      H1244   1.083       .  S
C1233      C1234   1.206       .  T
C1234      C1235   1.440       .  S
C1235      C1236   1.399       .  A
C1235      C1240   1.399       .  A
C1236      H1245   1.084       .  S
C1236      C1237   1.399       .  A
C1237      H1246   1.083       .  S
C1237      C1238   1.408       .  A
C1238      C1239   1.409       .  A
C1239      H1247   1.083       .  S
C1239      C1240   1.399       .  A
C1240      H1248   1.084       .  S
C1249      C1250   1.409       .  A
C1249      C1254   1.408       .  A
C1250      H1263   1.083       .  S
C1250      C1251   1.398       .  A
C1251      H1264   1.084       .  S
C1251      C1252   1.399       .  A
C1252      C1253   1.401       .  A
C1252      C1255   1.444       .  S
C1253      H1265   1.083       .  S
C1253      C1254   1.402       .  A
C1254      H1266   1.083       .  S
C1255      C1256   1.208       .  T
C1256      C1257   1.444       .  S
C1257      C1258   1.402       .  A
C1257      C1262   1.401       .  A
C1258      H1267   1.083       .  S
C1258      C1259   1.400       .  A
C1259      H1268   1.083       .  S
C1259      C1260   1.404       .  A
C1260      C1261   1.404       .  A
C1261      H1269   1.083       .  S
C1261      C1262   1.399       .  A
C1262      H1270   1.083       .  S
C1271      C1272   1.408       .  A
C1271      C1276   1.409       .  A
C1272      H1285   1.083       .  S
C1272      C1273   1.402       .  A
C1273      H1286   1.083       .  S
C1273      C1274   1.401       .  A
C1274      C1275   1.400       .  A
C1274      C1277   1.445       .  S
C1275      H1287   1.084       .  S
C1275      C1276   1.400       .  A
C1276      H1288   1.083       .  S
C1277      C1278   1.209       .  T
C1278      C1279   1.445       .  S
C1279      C1280   1.401       .  A
C1279      C1284   1.401       .  A
C1280      H1289   1.084       .  S
C1280      C1281   1.401       .  A
C1281      H1290   1.083       .  S
C1281      C1282   1.407       .  A
C1282      C1283   1.406       .  A
C1283      H1291   1.083   1_565  S
C1283      C1284   1.400       .  A
C1284      H1292   1.083   1_565  S
C1293      C1294   1.405       .  A
C1293      C1298   1.403       .  A
C1294      H1307   1.083       .  S
C1294      C1295   1.397       .  A
C1295      H1308   1.083       .  S
C1295      C1296   1.399       .  A
C1296      C1297   1.401       .  A
C1296      C1299   1.438       .  S
C1297      H1309   1.083       .  S
C1297      C1298   1.398       .  A
C1298      H1310   1.083       .  S
C1299      C1300   1.205       .  T
C1300      C1301   1.438       .  S
C1301      C1302   1.399       .  A
C1301      C1306   1.399       .  A
C1302      H1311   1.083       .  S
C1302      C1303   1.397       .  A
C1303      H1312   1.083       .  S
C1303      C1304   1.408       .  A
C1304      C1305   1.408       .  A
C1305      H1313   1.083       .  S
C1305      C1306   1.398       .  A
C1306      H1314   1.084       .  S
C1315      C1316   1.405       .  A
C1315      C1320   1.406       .  A
C1316      H1329   1.083       .  S
C1316      C1317   1.398       .  A
C1317      H1330   1.084       .  S
C1317      C1318   1.400       .  A
C1318      C1319   1.401       .  A
C1318      C1321   1.442       .  S
C1319      H1331   1.083       .  S
C1319      C1320   1.400       .  A
C1320      H1332   1.083       .  S
C1321      C1322   1.207       .  T
C1322      C1323   1.442       .  S
C1323      C1324   1.400       .  A
C1323      C1328   1.400       .  A
C1324      H1333   1.083       .  S
C1324      C1325   1.400       .  A
C1325      H1334   1.083       .  S
C1325      C1326   1.409       .  A
C1326      C1327   1.408       .  A
C1327      H1335   1.083       .  S
C1327      C1328   1.399       .  A
C1328      H1336   1.084       .  S
C1337      C1338   1.409       .  A
C1337      C1342   1.409       .  A
C1338      H1351   1.083       .  S
C1338      C1339   1.401       .  A
C1339      H1352   1.083       .  S
C1339      C1340   1.400       .  A
C1340      C1341   1.400       .  A
C1340      C1343   1.444       .  S
C1341      H1353   1.084       .  S
C1341      C1342   1.399       .  A
C1342      H1354   1.083       .  S
C1343      C1344   1.209       .  T
C1344      C1345   1.444       .  S
C1345      C1346   1.401       .  A
C1345      C1350   1.401       .  A
C1346      H1355   1.083       .  S
C1346      C1347   1.399       .  A
C1347      H1356   1.083       .  S
C1347      C1348   1.404       .  A
C1348      C1349   1.405       .  A
C1349      H1357   1.083       .  S
C1349      C1350   1.400       .  A
C1350      H1358   1.083       .  S
C1359      C1360   1.404       .  A
C1359      C1364   1.404       .  A
C1360      H1373   1.083       .  S
C1360      C1361   1.399       .  A
C1361      H1374   1.083       .  S
C1361      C1362   1.401       .  A
C1362      C1363   1.400       .  A
C1362      C1365   1.440       .  S
C1363      H1375   1.083       .  S
C1363      C1364   1.398       .  A
C1364      H1376   1.083       .  S
C1365      C1366   1.206       .  T
C1366      C1367   1.441       .  S
C1367      C1368   1.399       .  A
C1367      C1372   1.400       .  A
C1368      H1377   1.084       .  S
C1368      C1369   1.398       .  A
C1369      H1378   1.083   1_655  S
C1369      C1370   1.409   1_655  A
C1370      C1371   1.408   1_455  A
C1371      H1379   1.083       .  S
C1371      C1372   1.400       .  A
C1372      H1380   1.083       .  S
C1381      C1382   1.408       .  A
C1381      C1386   1.408       .  A
C1382      H1395   1.083       .  S
C1382      C1383   1.400       .  A
C1383      H1396   1.083       .  S
C1383      C1384   1.400       .  A
C1384      C1385   1.399       .  A
C1384      C1387   1.441       .  S
C1385      H1397   1.084       .  S
C1385      C1386   1.398       .  A
C1386      H1398   1.083       .  S
C1387      C1388   1.206       .  T
C1388      C1389   1.440       .  S
C1389      C1390   1.400       .  A
C1389      C1394   1.401       .  A
C1390      H1399   1.084   1_455  S
C1390      C1391   1.398   1_455  A
C1391      H1400   1.083       .  S
C1391      C1392   1.406   1_655  A
C1392      C1393   1.406       .  A
C1393      H1401   1.083       .  S
C1393      C1394   1.399       .  A
C1394      H1402   1.083       .  S
C1403      C1404   1.407       .  A
C1403      C1408   1.405       .  A
C1404      H1417   1.083       .  S
C1404      C1405   1.401       .  A
C1405      H1418   1.083       .  S
C1405      C1406   1.401       .  A
C1406      C1407   1.401       .  A
C1406      C1409   1.445       .  S
C1407      H1419   1.084       .  S
C1407      C1408   1.400       .  A
C1408      H1420   1.083   1_565  S
C1409      C1410   1.209       .  T
C1410      C1411   1.445       .  S
C1411      C1412   1.400       .  A
C1411      C1416   1.401       .  A
C1412      H1421   1.083       .  S
C1412      C1413   1.400       .  A
C1413      H1422   1.083       .  S
C1413      C1414   1.409       .  A
C1414      C1415   1.409       .  A
C1415      H1423   1.083       .  S
C1415      C1416   1.402       .  A
C1416      H1424   1.084       .  S
C1425      C1426   1.407       .  A
C1425      C1430   1.405       .  A
C1426      H1439   1.083       .  S
C1426      C1427   1.399       .  A
C1427      H1440   1.083       .  S
C1427      C1428   1.400       .  A
C1428      C1429   1.402       .  A
C1428      C1431   1.444       .  S
C1429      H1441   1.084       .  S
C1429      C1430   1.401       .  A
C1430      H1442   1.083       .  S
C1431      C1432   1.209       .  T
C1432      C1433   1.445   1_655  S
C1433      C1434   1.400   1_455  A
C1433      C1438   1.400       .  A
C1434      H1443   1.083       .  S
C1434      C1435   1.400   1_655  A
C1435      H1444   1.083       .  S
C1435      C1436   1.408       .  A
C1436      C1437   1.409       .  A
C1437      H1445   1.083       .  S
C1437      C1438   1.401       .  A
C1438      H1446   1.084       .  S
C1447      C1448   1.409       .  A
C1447      C1452   1.408       .  A
C1448      H1461   1.083       .  S
C1448      C1449   1.400       .  A
C1449      H1462   1.084       .  S
C1449      C1450   1.400       .  A
C1450      C1451   1.399       .  A
C1450      C1453   1.442       .  S
C1451      H1463   1.083       .  S
C1451      C1452   1.399       .  A
C1452      H1464   1.083       .  S
C1453      C1454   1.207       .  T
C1454      C1455   1.442       .  S
C1455      C1456   1.402       .  A
C1455      C1460   1.400       .  A
C1456      H1465   1.083       .  S
C1456      C1457   1.400       .  A
C1457      H1466   1.083       .  S
C1457      C1458   1.405       .  A
C1458      C1459   1.406       .  A
C1459      H1467   1.083       .  S
C1459      C1460   1.398       .  A
C1460      H1468   1.084       .  S
C1469      C1470   1.406       .  A
C1469      C1474   1.406       .  A
C1470      H1483   1.083       .  S
C1470      C1471   1.400       .  A
C1471      H1484   1.083       .  S
C1471      C1472   1.402       .  A
C1472      C1473   1.400       .  A
C1472      C1475   1.442       .  S
C1473      H1485   1.084       .  S
C1473      C1474   1.398       .  A
C1474      H1486   1.083       .  S
C1475      C1476   1.208       .  T
C1476      C1477   1.442       .  S
C1477      C1478   1.400       .  A
C1477      C1482   1.399       .  A
C1478      H1487   1.083       .  S
C1478      C1479   1.400       .  A
C1479      H1488   1.083       .  S
C1479      C1480   1.408       .  A
C1480      C1481   1.409       .  A
C1481      H1489   1.083       .  S
C1481      C1482   1.399       .  A
C1482      H1490   1.084       .  S
C1491      C1492   1.405       .  A
C1491      C1496   1.404       .  A
C1492      H1505   1.083       .  S
C1492      C1493   1.396       .  A
C1493      H1506   1.083       .  S
C1493      C1494   1.399       .  A
C1494      C1495   1.402       .  A
C1494      C1497   1.439       .  S
C1495      H1507   1.084       .  S
C1495      C1496   1.400       .  A
C1496      H1508   1.083       .  S
C1497      C1498   1.206       .  T
C1498      C1499   1.440       .  S
C1499      C1500   1.399   1_545  A
C1499      C1504   1.399       .  A
C1500      H1509   1.084       .  S
C1500      C1501   1.398       .  A
C1501      H1510   1.083       .  S
C1501      C1502   1.408       .  A
C1502      C1503   1.408       .  A
C1503      H1511   1.083       .  S
C1503      C1504   1.399   1_565  A
C1504      H1512   1.083       .  S
C1513      C1514   1.404       .  A
C1513      C1518   1.406       .  A
C1514      H1527   1.083       .  S
C1514      C1515   1.401       .  A
C1515      H1528   1.084       .  S
C1515      C1516   1.402       .  A
C1516      C1517   1.399       .  A
C1516      C1519   1.441       .  S
C1517      H1529   1.083       .  S
C1517      C1518   1.397       .  A
C1518      H1530   1.083       .  S
C1519      C1520   1.207       .  T
C1520      C1521   1.441       .  S
C1521      C1522   1.400       .  A
C1521      C1526   1.399       .  A
C1522      H1531   1.083       .  S
C1522      C1523   1.399       .  A
C1523      H1532   1.083       .  S
C1523      C1524   1.408       .  A
C1524      C1525   1.409       .  A
C1525      H1533   1.083       .  S
C1525      C1526   1.398       .  A
C1526      H1534   1.084       .  S
C1535      C1536   1.408       .  A
C1535      C1540   1.409       .  A
C1536      H1549   1.083       .  S
C1536      C1537   1.400       .  A
C1537      H1550   1.084       .  S
C1537      C1538   1.400       .  A
C1538      C1539   1.399       .  A
C1538      C1541   1.441       .  S
C1539      H1551   1.083       .  S
C1539      C1540   1.398       .  A
C1540      H1552   1.083       .  S
C1541      C1542   1.207       .  T
C1542      C1543   1.441       .  S
C1543      C1544   1.402       .  A
C1543      C1548   1.399       .  A
C1544      H1553   1.083       .  S
C1544      C1545   1.400       .  A
C1545      H1554   1.083       .  S
C1545      C1546   1.404       .  A
C1546      C1547   1.405       .  A
C1547      H1555   1.083       .  S
C1547      C1548   1.397       .  A
C1548      H1556   1.083       .  S
C1557      C1558   1.409       .  A
C1557      C1562   1.408       .  A
C1558      H1571   1.083       .  S
C1558      C1559   1.400       .  A
C1559      H1572   1.084       .  S
C1559      C1560   1.400       .  A
C1560      C1561   1.400       .  A
C1560      C1563   1.443   1_565  S
C1561      H1573   1.083   1_565  S
C1561      C1562   1.400       .  A
C1562      H1574   1.083       .  S
C1563      C1564   1.208       .  T
C1564      C1565   1.442       .  S
C1565      C1566   1.402       .  A
C1565      C1570   1.399       .  A
C1566      H1575   1.083       .  S
C1566      C1567   1.401       .  A
C1567      H1576   1.083       .  S
C1567      C1568   1.406       .  A
C1568      C1569   1.407       .  A
C1569      H1577   1.083       .  S
C1569      C1570   1.398       .  A
C1570      H1578   1.084       .  S
C1579      C1580   1.408       .  A
C1579      C1584   1.408       .  A
C1580      H1593   1.083       .  S
C1580      C1581   1.397       .  A
C1581      H1594   1.084       .  S
C1581      C1582   1.399       .  A
C1582      C1583   1.400       .  A
C1582      C1585   1.441       .  S
C1583      H1595   1.083       .  S
C1583      C1584   1.400       .  A
C1584      H1596   1.083       .  S
C1585      C1586   1.207       .  T
C1586      C1587   1.441       .  S
C1587      C1588   1.401       .  A
C1587      C1592   1.400       .  A
C1588      H1597   1.083       .  S
C1588      C1589   1.399       .  A
C1589      H1598   1.083       .  S
C1589      C1590   1.404       .  A
C1590      C1591   1.404       .  A
C1591      H1599   1.083       .  S
C1591      C1592   1.397       .  A
C1592      H1600   1.083       .  S
C1601      C1602   1.404       .  A
C1601      C1606   1.405       .  A
C1602      H1615   1.083       .  S
C1602      C1603   1.401       .  A
C1603      H1616   1.083       .  S
C1603      C1604   1.403       .  A
C1604      C1605   1.401       .  A
C1604      C1607   1.445       .  S
C1605      H1617   1.083       .  S
C1605      C1606   1.399       .  A
C1606      H1618   1.083       .  S
C1607      C1608   1.210       .  T
C1608      C1609   1.446       .  S
C1609      C1610   1.401       .  A
C1609      C1614   1.399       .  A
C1610      H1619   1.083       .  S
C1610      C1611   1.402       .  A
C1611      H1620   1.083       .  S
C1611      C1612   1.409       .  A
C1612      C1613   1.409       .  A
C1613      H1621   1.083       .  S
C1613      C1614   1.399       .  A
C1614      H1622   1.084       .  S
C1623      C1624   1.408       .  A
C1623      C1628   1.408       .  A
C1624      H1637   1.083       .  S
C1624      C1625   1.401       .  A
C1625      H1638   1.083       .  S
C1625      C1626   1.401       .  A
C1626      C1627   1.398       .  A
C1626      C1629   1.439       .  S
C1627      H1639   1.084       .  S
C1627      C1628   1.396       .  A
C1628      H1640   1.083       .  S
C1629      C1630   1.206       .  T
C1630      C1631   1.439       .  S
C1631      C1632   1.400       .  A
C1631      C1636   1.400       .  A
C1632      H1641   1.084       .  S
C1632      C1633   1.397       .  A
C1633      H1642   1.083       .  S
C1633      C1634   1.405       .  A
C1634      C1635   1.405   1_455  A
C1635      H1643   1.083       .  S
C1635      C1636   1.398   1_655  A
C1636      H1644   1.083   1_455  S
C1645      C1646   1.410       .  A
C1645      C1650   1.408       .  A
C1646      H1659   1.083       .  S
C1646      C1647   1.402       .  A
C1647      H1660   1.084       .  S
C1647      C1648   1.401       .  A
C1648      C1649   1.399       .  A
C1648      C1651   1.444       .  S
C1649      H1661   1.083       .  S
C1649      C1650   1.398       .  A
C1650      H1662   1.083       .  S
C1651      C1652   1.208       .  T
C1652      C1653   1.443       .  S
C1653      C1654   1.400       .  A
C1653      C1658   1.402       .  A
C1654      H1663   1.083       .  S
C1654      C1655   1.397       .  A
C1655      H1664   1.083       .  S
C1655      C1656   1.405       .  A
C1656      C1657   1.405       .  A
C1657      H1665   1.083       .  S
C1657      C1658   1.402       .  A
C1658      H1666   1.084       .  S
C1667      C1668   1.404       .  A
C1667      C1672   1.406       .  A
C1668      H1681   1.083       .  S
C1668      C1669   1.399       .  A
C1669      H1682   1.084       .  S
C1669      C1670   1.402       .  A
C1670      C1671   1.399       .  A
C1670      C1673   1.438       .  S
C1671      H1683   1.083       .  S
C1671      C1672   1.396       .  A
C1672      H1684   1.083       .  S
C1673      C1674   1.205       .  T
C1674      C1675   1.438   1_655  S
C1675      C1676   1.399       .  A
C1675      C1680   1.399   1_455  A
C1676      H1685   1.084       .  S
C1676      C1677   1.398       .  A
C1677      H1686   1.083       .  S
C1677      C1678   1.408       .  A
C1678      C1679   1.408       .  A
C1679      H1687   1.083       .  S
C1679      C1680   1.398   1_455  A
C1680      H1688   1.083       .  S
C1689      C1690   1.409       .  A
C1689      C1694   1.409       .  A
C1690      H1703   1.083       .  S
C1690      C1691   1.401       .  A
C1691      H1704   1.083       .  S
C1691      C1692   1.401       .  A
C1692      C1693   1.400       .  A
C1692      C1695   1.446       .  S
C1693      H1705   1.084       .  S
C1693      C1694   1.401       .  A
C1694      H1706   1.083       .  S
C1695      C1696   1.210       .  T
C1696      C1697   1.446       .  S
C1697      C1698   1.402       .  A
C1697      C1702   1.400       .  A
C1698      H1707   1.083       .  S
C1698      C1699   1.401       .  A
C1699      H1708   1.083       .  S
C1699      C1700   1.406       .  A
C1700      C1701   1.407       .  A
C1701      H1709   1.083       .  S
C1701      C1702   1.400       .  A
C1702      H1710   1.083       .  S
