geometry optimzed in LAMMPS
_audit_creation_date              2020-11-30 
_audit_creation_method            'lammps2cif' 
_symmetry_space_group_name_H-M    'P1' 
_symmetry_Int_Tables_number       1 
_symmetry_cell_setting            triclinic 
loop_ 
_symmetry_equiv_pos_as_xyz 
  x,y,z 
_cell_length_a                    28.61600261 
_cell_length_b                    34.18706038081824 
_cell_length_c                    22.70807679256477 
_cell_angle_alpha                 89.99961858030251 
_cell_angle_beta                  117.59577420526205 
_cell_angle_gamma                 90.00039641228517 
loop_ 
_atom_site_label 
_atom_site_type_symbol 
_atom_site_fract_x 
_atom_site_fract_y 
_atom_site_fract_z 
_atom_site_charge 
C1          C  0.89894641  0.10589765  0.70092039     0.06100
C2          C  0.92711590  0.13027487  0.67903385    -0.10000
C3          C  0.90021734  0.15755809  0.62816945     0.03600
C4          C  0.84513759  0.16064196  0.59999560    -0.08600
C5          C  0.81720683  0.13642373  0.62250213     0.06100
C6          C  0.84414709  0.10914912  0.67274386    -0.08000
H7          H  0.96948497  0.12779950  0.70121240     0.11700
H8          H  0.82414703  0.18161139  0.56064358     0.09200
H9          H  0.82233977  0.09014045  0.68954426     0.09100
O10         O  0.50021541  0.19215957  0.31547712    -0.77900
O11         O  0.45379172  0.07287809  0.49684229    -0.62600
O12         O  0.47892814  0.16416299  0.41926058    -1.09200
C13         C  0.65829040  0.13468326  0.55273828     1.09000
O14         O  0.51897553  0.08172540  0.59903285    -0.75800
O15         O  0.56351950  0.15334031  0.61204906    -0.63400
Ni16       Ni  0.44102564  0.17057150  0.32420107     1.34900
C17         C  0.56448953  0.18619293  0.58678556     0.87700
O18         O  0.39159384  0.12789070  0.41907548    -0.76300
O19         O  0.37555619  0.15215957  0.31987119    -0.86600
C20         C  0.47565476  0.06602249  0.55850856     0.87300
O21         O  0.45683549  0.11979649  0.30319922    -0.64800
O22         O  0.64352576  0.12052551  0.59327749    -0.84100
C23         C  0.45465163  0.08707671  0.32813891     0.88100
C24         C  0.36035984  0.13863226  0.36042089     1.09700
H25         H  0.54667638  0.08731467  0.47423820     0.41500
O26         O  0.53959267  0.10977098  0.49468180    -1.06800
O27         O  0.56391641  0.19015305  0.53073665    -0.63400
Ni28       Ni  0.55320895  0.15602046  0.45751966     1.26300
O29         O  0.45423530  0.08356072  0.38370916    -0.63600
O30         O  0.62682551  0.14646784  0.49490690    -0.75900
C31         C  0.54279023  0.20862512  0.35640246     0.87500
O32         O  0.56449163  0.20162889  0.41801649    -0.63100
Ni33       Ni  0.57810111  0.10267025  0.58961970     1.27400
Ni34       Ni  0.46526525  0.11811619  0.45670939     1.26100
H35         H  0.47160788  0.18676309  0.43921240     0.42100
C36         C  0.11774583  0.15997401  0.20427998     0.06100
C37         C  0.17281329  0.15871626  0.23417652    -0.10000
C38         C  0.20082502  0.13233467  0.28561299     0.03600
C39         C  0.17365192  0.10698224  0.30766248    -0.08600
C40         C  0.11832085  0.10797809  0.27792302     0.06100
C41         C  0.09039650  0.13427165  0.22560506    -0.08000
H42         H  0.19400290  0.17874401  0.21799608     0.11700
H43         H  0.19545193  0.08690103  0.34819874     0.09200
H44         H  0.04785406  0.13508687  0.20225521     0.09100
C45         C  0.62177630  0.34175957  0.22921334     0.06100
C46         C  0.67682037  0.34026044  0.26060699    -0.10000
C47         C  0.70360677  0.31186383  0.30884548     0.03600
C48         C  0.67530494  0.28470671  0.32605634    -0.08600
C49         C  0.62001225  0.28614508  0.29493086     0.06100
C50         C  0.59333772  0.31470977  0.24637240    -0.08000
H51         H  0.69888077  0.36115753  0.24726655     0.11700
H52         H  0.69615535  0.26267948  0.36349940     0.09200
H53         H  0.55089303  0.31592228  0.22210021     0.09100
O54         O  0.99558954  0.02709869  0.31598301    -0.77900
O55         O  0.95069848  0.24222856  0.49863160    -0.62600
O56         O  0.98258912  0.33376981  0.42787723    -1.09200
C57         C  0.15742220  0.29159115  0.53867121     1.09000
O58         O  0.02413495  0.23943615  0.59522737    -0.75800
O59         O  0.06394161  0.97821202  0.60527854    -0.63400
Ni60       Ni  0.93905869  0.34483447  0.33486202     1.34900
C61         C  0.07119006  0.01068427  0.58355820     0.87700
O62         O  0.89523704  0.30370223  0.43556428    -0.76300
O63         O  0.87515328  0.32585245  0.33420422    -0.86600
C64         C  0.97675592  0.22950907  0.55729763     0.87300
O65         O  0.95198925  0.29523070  0.30693824    -0.64800
O66         O  0.14456983  0.28143984  0.58312412    -0.84100
C67         C  0.94586784  0.26197544  0.32722622     0.88100
C68         C  0.86216255  0.31429436  0.37780709     1.09700
H69         H  0.03874062  0.25040444  0.46472143     0.41500
O70         O  0.03724174  0.27293889  0.48947843    -1.06800
O71         O  0.07494759  0.01396405  0.52996447    -0.63400
Ni72       Ni  0.05405134  0.31871949  0.45475466     1.26300
O73         O  0.94429948  0.25684827  0.38191837    -0.63600
O74         O  0.12424680  0.30208754  0.48086828    -0.75900
C75         C  0.04315753  0.03700882  0.35302348     0.87500
O76         O  0.06924796  0.02532375  0.41241972    -0.63100
Ni77       Ni  0.08057319  0.26245217  0.58261124     1.27400
Ni78       Ni  0.96574003  0.28772401  0.46219444     1.26100
H79         H  0.98086780  0.01894945  0.44746995     0.42100
C80         C  0.39668391  0.25607160  0.67864635     0.06100
C81         C  0.34181680  0.25944075  0.64973595    -0.10000
C82         C  0.31542649  0.28767876  0.60095367     0.03600
C83         C  0.34361789  0.99001195  0.59207120    -0.08600
C84         C  0.39897843  0.99053848  0.62395738     0.06100
C85         C  0.42718491  0.96380256  0.67516333    -0.08000
H86         H  0.31961495  0.24022809  0.66562904     0.11700
H87         H  0.32165334  0.01064796  0.55254096     0.09200
H88         H  0.46974439  0.96427229  0.69986873     0.09100
C89         C  0.89843591  0.17232522  0.19526593     0.06100
C90         C  0.92788457  0.14741457  0.17598900    -0.10000
C91         C  0.90223575  0.11919368  0.12617551     0.03600
C92         C  0.84701365  0.11603168  0.09607941    -0.08600
C93         C  0.81774011  0.14097551  0.11555386     0.06100
C94         C  0.84354622  0.16893516  0.16502525    -0.08000
H95         H  0.97029735  0.15015497  0.19955798     0.11700
H96         H  0.82694221  0.09439693  0.05758746     0.09200
H97         H  0.82077869  0.18827766  0.17983405     0.09100
O98         O  0.52022504  0.20096112  0.08706471    -0.77900
O99         O  0.56729017  0.06512209  0.93148599    -0.62600
O100        O  0.53818227  0.16328289  0.98724604    -1.09200
C101        C  0.36071072  0.12382357  0.87202629     1.09000
O102        O  0.49958892  0.06591356  0.82972976    -0.75800
O103        O  0.44959675  0.13617624  0.80134554    -0.63400
Ni104      Ni  0.57913269  0.17888725  0.07876022     1.34900
C105        C  0.44651993  0.17090766  0.81884385     0.87700
O106        O  0.62658888  0.12581164  0.99128753    -0.76300
O107        O  0.64448868  0.16067835  0.08273397    -0.86200
C108        C  0.54444116  0.05325104  0.87207232     0.87300
O109        O  0.57021974  0.13122943  0.11576790    -0.64800
O110        O  0.37488304  0.10627145  0.83343421    -0.84100
C111        C  0.57227690  0.09633787  0.09832395     0.88100
C112        C  0.65858904  0.14230373  0.04483831     1.09700
H113        H  0.47659389  0.08280419  0.95585373     0.41500
O114        O  0.48083852  0.10316511  0.92922697    -1.06800
O115        O  0.44825353  0.17961208  0.87432120    -0.63400
Ni116      Ni  0.46499485  0.15220738  0.95634283     1.26300
O117        O  0.56996676  0.08707126  0.04276604    -0.63600
O118        O  0.39265449  0.13979454  0.92617583    -0.75900
C119        C  0.47453813  0.21256147  0.04562481     0.87500
O120        O  0.45134079  0.20067241  0.98624640    -0.63100
Ni121      Ni  0.44034782  0.08812938  0.83745979     1.27400
Ni122      Ni  0.55401845  0.11396150  0.96067170     1.26100
H123        H  0.54214508  0.18346452  0.96008229     0.42100
C124        C  0.11954568  0.10152203  0.71223157     0.06100
C125        C  0.17463423  0.10199394  0.74587956    -0.10000
C126        C  0.20135339  0.12855972  0.79748196     0.03600
C127        C  0.17279934  0.15482357  0.81597542    -0.08600
C128        C  0.11739813  0.15463376  0.78226079     0.06100
C129        C  0.09087055  0.12815244  0.72983090    -0.08000
H130        H  0.19680610  0.08141416  0.73215672     0.11700
H131        H  0.19353468  0.17521479  0.85638862     0.09200
H132        H  0.04833109  0.12791882  0.70331037     0.09100
C133        C  0.61563956  0.27472735  0.71774585     0.06100
C134        C  0.59676530  0.94891305  0.76261850    -0.10000
C135        C  0.62374301  0.97663655  0.81253446     0.03600
C136        C  0.67882606  0.97963991  0.84051421    -0.08600
C137        C  0.70075036  0.29919521  0.79926747     0.06100
C138        C  0.67069909  0.27383544  0.74705299    -0.08000
H139        H  0.55441840  0.94638211  0.74093781     0.11700
H140        H  0.69982178  0.00123102  0.87873161     0.09200
H141        H  0.69022480  0.25331971  0.72921734     0.09100
C142        C  0.39560797  0.33570279  0.18672871     0.06100
C143        C  0.42314869  0.31128424  0.16408540    -0.10000
C144        C  0.39560459  0.28554943  0.11104185     0.03600
C145        C  0.34039522  0.28406515  0.08112379    -0.08600
C146        C  0.31304817  0.30836014  0.10431468     0.06100
C147        C  0.34063120  0.33411604  0.15687581    -0.08000
H148        H  0.46557917  0.31246141  0.18731344     0.11700
H149        H  0.31890814  0.26409088  0.04028657     0.09200
H150        H  0.31925756  0.35305039  0.17443133     0.09100
O151        O  0.02722509  0.03396284  0.09844822    -0.77900
O152        O  0.06594545  0.24111836  0.90758072    -0.62600
O153        O  0.03552872  0.32884801  0.98800284    -1.09200
C154        C  0.85918409  0.29316725  0.86619625     1.09000
O155        O  0.99261536  0.23969051  0.81081099    -0.75800
O156        O  0.95130598  0.98236519  0.80611925    -0.63400
Ni157      Ni  0.07734565  0.33522617  0.08256852     1.34900
C158        C  0.94760538  0.01520193  0.82951790     0.87700
O159        O  0.12230996  0.30014583  0.97880518    -0.76300
O160        O  0.14144498  0.31728089  0.08246069    -0.86600
C161        C  0.03983190  0.22921459  0.84842700     0.87300
O162        O  0.06201297  0.28411012  0.10257529    -0.64800
O163        O  0.87299026  0.28395243  0.82224139    -0.84100
C164        C  0.06811348  0.25216123  0.07857488     0.88100
C165        C  0.15490297  0.30860149  0.03795241     1.09700
H166        H  0.97606657  0.24747258  0.94010395     0.41500
O167        O  0.97893032  0.27081322  0.91798024    -1.06800
O168        O  0.94829801  0.01939314  0.88560436    -0.63400
Ni169      Ni  0.96317466  0.31554505  0.95656824     1.26300
O170        O  0.07073512  0.25003425  0.02416216    -0.63600
O171        O  0.89171205  0.30090278  0.92568723    -0.75900
C172        C  0.98006998  0.04443674  0.06047109     0.87500
O173        O  0.95384973  0.03175888  0.00180226    -0.63100
Ni174      Ni  0.93666500  0.26370661  0.82354044     1.27400
Ni175      Ni  0.05128892  0.28467664  0.94859588     1.26100
H176        H  0.04313604  0.02318220  0.96886656     0.42100
C177        C  0.20985222  0.30743805  0.05631771    -0.10300
C178        C  0.25667704  0.30696999  0.07547312    -0.11800
C179        C  0.75720777  0.29814498  0.82741419    -0.10300
C180        C  0.80404537  0.29598115  0.84678478    -0.11800
C181        C  0.08807114  0.18091721  0.80280464    -0.10300
C182        C  0.06516607  0.20285412  0.82250778    -0.11800
C183        C  0.30532176  0.12649982  0.85202228    -0.10300
C184        C  0.25812905  0.12847332  0.83030552    -0.11800
C185        C  0.59484143  0.00268437  0.83375002    -0.10300
C186        C  0.57122952  0.02530207  0.85111838    -0.11800
C187        C  0.44732998  0.23925643  0.06789537    -0.10300
C188        C  0.42393716  0.26064978  0.08741050    -0.11800
C189        C  0.71395620  0.13966850  0.06463158    -0.10300
C190        C  0.76109860  0.13867474  0.08528931    -0.11800
C191        C  0.93207717  0.09362043  0.10523837    -0.10300
C192        C  0.95490195  0.07152914  0.08559892    -0.11800
C193        C  0.43732990  0.20185738  0.77181962    -0.10300
C194        C  0.42257077  0.22714812  0.72991510    -0.11800
C195        C  0.21230980  0.29186687  0.55558482    -0.10300
C196        C  0.25908591  0.29102441  0.57359095    -0.11800
C197        C  0.07943337  0.04495516  0.62377472    -0.10300
C198        C  0.09361013  0.07223323  0.66182275    -0.11800
C199        C  0.93703707  0.22882517  0.28440129    -0.10300
C200        C  0.92329062  0.20211882  0.24515339    -0.11800
C201        C  0.80717906  0.31208002  0.35957086    -0.10300
C202        C  0.76017816  0.31080798  0.33930859    -0.11800
C203        C  0.59563215  0.37132234  0.17945338    -0.10300
C204        C  0.58117223  0.06585573  0.14573371    -0.11800
C205        C  0.09077534  0.18945606  0.15448238    -0.10300
C206        C  0.07630101  0.21711010  0.11715177    -0.11800
C207        C  0.09062766  0.08299244  0.30289429    -0.10300
C208        C  0.06871659  0.06219894  0.32565750    -0.11800
C209        C  0.30472165  0.13484610  0.33795728    -0.10300
C210        C  0.25755411  0.13244169  0.31612221    -0.11800
C211        C  0.58629591  0.24707977  0.66571960    -0.10300
C212        C  0.57096849  0.22050527  0.62630031    -0.11800
C213        C  0.42258267  0.36357295  0.23902171    -0.10300
C214        C  0.44792400  0.05245819  0.28885930    -0.11800
C215        C  0.44969437  0.03996128  0.58374202    -0.10300
C216        C  0.42683325  0.01777354  0.60296712    -0.11800
C217        C  0.56812656  0.23570506  0.33177893    -0.10300
C218        C  0.59094727  0.25864696  0.31365984    -0.11800
C219        C  0.76076099  0.13857162  0.59404716    -0.10300
C220        C  0.71374242  0.13757792  0.57389869    -0.11800
C221        C  0.92491950  0.07628280  0.75048778    -0.10300
C222        C  0.93907313  0.04915886  0.78873356    -0.11800
C223        C  0.92875247  0.18210747  0.60414593    -0.10300
C224        C  0.95119240  0.20327079  0.58281734    -0.11800
C225        C  0.89889550  0.43719563  0.69835123     0.06100
C226        C  0.92685041  0.46458893  0.68101074    -0.10000
C227        C  0.89948462  0.49144291  0.62960290     0.03600
C228        C  0.84418736  0.49125458  0.59649326    -0.08600
C229        C  0.81642264  0.46404494  0.61435542     0.06100
C230        C  0.84377784  0.43709704  0.66506485    -0.08000
H231        H  0.96945517  0.46471644  0.70679560     0.11700
H232        H  0.82292297  0.51191160  0.55669189     0.09200
H233        H  0.82211511  0.41583214  0.67837638     0.09100
O234        O  0.49668120  0.52737453  0.31621038    -0.77900
O235        O  0.45042610  0.40268205  0.49204314    -0.62600
O236        O  0.48177044  0.49485142  0.42187473    -1.09200
C237        C  0.65751923  0.45676146  0.53829989     1.09000
O238        O  0.52352352  0.39907641  0.58890580    -0.75800
O239        O  0.56398981  0.47362782  0.60444436    -0.63400
Ni240      Ni  0.43945893  0.50572874  0.32855667     1.34900
C241        C  0.57095278  0.50690161  0.58481531     0.87700
O242        O  0.39412328  0.46366200  0.42757797    -0.76300
O243        O  0.37504918  0.48788302  0.32755505    -0.86600
C244        C  0.47648984  0.38874139  0.54986517     0.87300
O245        O  0.45158341  0.45588548  0.30088189    -0.64800
O246        O  0.64369337  0.44525113  0.58118065    -0.84100
C247        C  0.44643381  0.42265383  0.32192711     0.88100
C248        C  0.36157910  0.47547397  0.37027864     1.09700
H249        H  0.53989290  0.41245441  0.46050838     0.41500
O250        O  0.53746133  0.43478283  0.48502105    -1.06800
O251        O  0.57352384  0.51204879  0.53075198    -0.63400
Ni252      Ni  0.55385094  0.48114170  0.45091771     1.26300
O253        O  0.44548589  0.41746923  0.37686745    -0.63600
O254        O  0.62499754  0.46615908  0.47957538    -0.75900
C255        C  0.54334893  0.53841646  0.35488344     0.87500
O256        O  0.56847285  0.52697818  0.41451195    -0.63100
Ni257      Ni  0.57987130  0.42433956  0.57841662     1.27400
Ni258      Ni  0.46528758  0.44857867  0.45614133     1.26100
H259        H  0.47939342  0.51717845  0.44645039     0.42100
C260        C  0.12073983  0.50320838  0.21986055     0.06100
C261        C  0.17574984  0.50136900  0.25007171    -0.10000
C262        C  0.20288470  0.47449272  0.30097174     0.03600
C263        C  0.17496080  0.44921173  0.32187948    -0.08600
C264        C  0.11971131  0.45088756  0.29162307     0.06100
C265        C  0.09263478  0.47785270  0.24030312    -0.08000
H266        H  0.19750755  0.52108233  0.23426223     0.11700
H267        H  0.19608682  0.42846101  0.36156127     0.09200
H268        H  0.05015546  0.47943925  0.21668204     0.09100
C269        C  0.61773782  0.66192140  0.20698224     0.06100
C270        C  0.67288560  0.66203711  0.23940641    -0.10000
C271        C  0.70072886  0.63698587  0.29304997     0.03600
C272        C  0.67342747  0.61174768  0.31490810    -0.08600
C273        C  0.61812025  0.61140600  0.28271774     0.06100
C274        C  0.59023638  0.63629115  0.22820369    -0.08000
H275        H  0.69420879  0.68187022  0.22312393     0.11700
H276        H  0.69510878  0.59252533  0.35684345     0.09200
H277        H  0.54762373  0.63595054  0.20293157     0.09100
O278        O  0.99544784  0.36788317  0.32221782    -0.77900
O279        O  0.94986711  0.57593997  0.50129833    -0.62600
O280        O  0.97942504  0.66390202  0.42062641    -1.09200
C281        C  0.15636656  0.62813608  0.54513432     1.09000
O282        O  0.02111775  0.57823077  0.60013186    -0.75800
O283        O  0.06678591  0.31211977  0.60922337    -0.63400
Ni284      Ni  0.93869194  0.66937348  0.32569283     1.34900
C285        C  0.07409952  0.34511315  0.58936681     0.87700
O286        O  0.89193382  0.63384828  0.42733426    -0.76300
O287        O  0.87453150  0.64980685  0.32385410    -0.86600
C288        C  0.97496709  0.56608943  0.56169344     0.87300
O289        O  0.95705228  0.61855627  0.30818007    -0.64800
O290        O  0.14236654  0.61833588  0.58863836    -0.84100
C291        C  0.95117624  0.58654183  0.33230231     0.88100
C292        C  0.85997709  0.64125957  0.36739884     1.09700
H293        H  0.04049642  0.58339467  0.47149683     0.41500
O294        O  0.03669815  0.60677966  0.49279948    -1.06800
O295        O  0.07629560  0.34985955  0.53499515    -0.63400
Ni296      Ni  0.05231311  0.65130635  0.45377188     1.26300
O297        O  0.94684223  0.58451606  0.38559005    -0.63600
O298        O  0.12418306  0.63723790  0.48610150    -0.75900
C299        C  0.04310848  0.37722178  0.35985299     0.87500
O300        O  0.06937883  0.36395051  0.41808011    -0.63100
Ni301      Ni  0.07806513  0.60004335  0.58745934     1.27400
Ni302      Ni  0.96384255  0.61959673  0.46001234     1.26100
H303        H  0.98134256  0.35615602  0.45308325     0.42100
C304        C  0.39789228  0.60199222  0.69672015     0.06100
C305        C  0.34285980  0.60340329  0.66688051    -0.10000
C306        C  0.31502171  0.62898387  0.61409037     0.03600
C307        C  0.34402938  0.31292868  0.58092957    -0.08600
C308        C  0.39916916  0.30980379  0.60970230     0.06100
C309        C  0.42535344  0.28105922  0.65829237    -0.08000
H310        H  0.32163105  0.58444253  0.68460611     0.11700
H311        H  0.32355171  0.33511269  0.54363630     0.09200
H312        H  0.46763081  0.27811056  0.68034738     0.09100
C313        C  0.90361583  0.49469281  0.20706396     0.06100
C314        C  0.93021363  0.46761364  0.18685474    -0.10000
C315        C  0.90154987  0.44263077  0.13269193     0.03600
C316        C  0.84621967  0.44410640  0.10037214    -0.08600
C317        C  0.81984305  0.47059887  0.12172492     0.06100
C318        C  0.84856006  0.49581996  0.17466355    -0.08000
H319        H  0.97271590  0.46640539  0.21240747     0.11700
H320        H  0.82384672  0.42492157  0.05864304     0.09200
H321        H  0.82794901  0.51675077  0.19023662     0.09100
O322        O  0.52786807  0.53820913  0.10096734    -0.77900
O323        O  0.57106790  0.40960454  0.92740742    -0.62600
O324        O  0.54130221  0.50252646  0.99686311    -1.09200
C325        C  0.36477052  0.46153534  0.88214903     1.09000
O326        O  0.50095330  0.41160516  0.82778800    -0.75800
O327        O  0.45293151  0.48185968  0.81125754    -0.63400
Ni328      Ni  0.58405143  0.51309657  0.09020037     1.34900
C329        C  0.44895070  0.51522412  0.83283833     0.87700
O330        O  0.62844733  0.47004332  0.99160617    -0.76300
O331        O  0.64783466  0.49198122  0.09281946    -0.86200
C332        C  0.54692071  0.39946063  0.86711708     0.87300
O333        O  0.56787271  0.46421610  0.11679517    -0.64800
O334        O  0.37826604  0.44815066  0.83997186    -0.84100
C335        C  0.57348625  0.43069200  0.09694050     0.88100
C336        C  0.66128000  0.47987957  0.04987651     1.09700
H337        H  0.48203981  0.42068531  0.95801501     0.41500
O338        O  0.48485799  0.44286996  0.93350514    -1.06800
O339        O  0.44953222  0.52061447  0.88863958    -0.63400
Ni340      Ni  0.46880075  0.48931066  0.96764310     1.26300
O341        O  0.57593608  0.42508172  0.04291845    -0.63600
O342        O  0.39721363  0.47479163  0.93852285    -0.75900
C343        C  0.48069899  0.54840869  0.06242720     0.87500
O344        O  0.45458084  0.53514241  0.00413287    -0.63100
Ni345      Ni  0.44297576  0.43172962  0.84027604     1.27400
Ni346      Ni  0.55712443  0.45581658  0.96311273     1.26100
H347        H  0.54406928  0.52466653  0.97219073     0.42100
C348        C  0.12461166  0.43180661  0.72671666     0.06100
C349        C  0.17972518  0.43344515  0.75969249    -0.10000
C350        C  0.20575545  0.46017435  0.81134255     0.03600
C351        C  0.17656262  0.48533698  0.83049360    -0.08600
C352        C  0.12125423  0.48376852  0.79779273     0.06100
C353        C  0.09531370  0.45700795  0.74569402    -0.08000
H354        H  0.20240613  0.41402481  0.74488020     0.11700
H355        H  0.19675502  0.50614469  0.87040447     0.09200
H356        H  0.05273918  0.45577763  0.71999036     0.09100
C357        C  0.62063536  0.59672198  0.71643131     0.06100
C358        C  0.59052518  0.30127785  0.74081879    -0.10000
C359        C  0.62055411  0.32633191  0.79401028     0.03600
C360        C  0.67577207  0.32538598  0.82306983    -0.08600
C361        C  0.70168651  0.62654078  0.79869520     0.06100
C362        C  0.67573705  0.59861046  0.74908754    -0.08000
H363        H  0.54805869  0.30237257  0.71801344     0.11700
H364        H  0.69912319  0.34483496  0.86396316     0.09200
H365        H  0.69849086  0.57816188  0.73610591     0.09100
C366        C  0.39679091  0.67818928  0.19076772     0.06100
C367        C  0.42672481  0.65291445  0.17292901    -0.10000
C368        C  0.40158813  0.62406031  0.12425730     0.03600
C369        C  0.34641464  0.62057316  0.09375287    -0.08600
C370        C  0.31656838  0.64586460  0.11171290     0.06100
C371        C  0.34186096  0.67452526  0.16015824    -0.08000
H372        H  0.46916067  0.65584850  0.19670617     0.11700
H373        H  0.32682503  0.59836190  0.05616935     0.09200
H374        H  0.31871825  0.69407454  0.17401786     0.09100
O375        O  0.02047513  0.35670165  0.09611209    -0.77900
O376        O  0.06894303  0.57306497  0.91851652    -0.62600
O377        O  0.03657472  0.66431118  0.98934438    -1.09200
C378        C  0.86118118  0.62434487  0.87362787     1.09000
O379        O  0.99579543  0.56979716  0.82158681    -0.75800
O380        O  0.95438611  0.31394760  0.80340299    -0.63400
Ni381      Ni  0.07950473  0.67471716  0.08268559     1.34900
C382        C  0.94824956  0.34633319  0.82628338     0.87700
O383        O  0.12462704  0.63432414  0.98298404    -0.76300
O384        O  0.14369224  0.65498545  0.08476170    -0.86600
C385        C  0.04298125  0.55970835  0.86027397     0.87300
O386        O  0.06450049  0.62522558  0.10851827    -0.64800
O387        O  0.87514056  0.61426514  0.83017869    -0.84100
C388        C  0.07105600  0.59213929  0.08814924     0.88100
C389        C  0.15737869  0.64428200  0.04135876     1.09700
H390        H  0.97973840  0.58117838  0.95018322     0.41500
O391        O  0.98174013  0.60388372  0.92607237    -1.06800
O392        O  0.94498102  0.34939710  0.88024766    -0.63400
Ni393      Ni  0.96468728  0.64946808  0.96097483     1.26300
O394        O  0.07396215  0.58733593  0.03429295    -0.63600
O395        O  0.89378162  0.63333297  0.93262039    -0.75900
C396        C  0.97442073  0.36927340  0.05797700     0.87500
O397        O  0.94928954  0.35976329  0.99730355    -0.63100
Ni398      Ni  0.93924462  0.59410728  0.83255200     1.27400
Ni399      Ni  0.05363526  0.61849824  0.95478347     1.26100
H400        H  0.03877345  0.35239745  0.96667068     0.42100
C401        C  0.21273198  0.64274508  0.06044473    -0.10300
C402        C  0.25993396  0.64283794  0.08127080    -0.11800
C403        C  0.75845494  0.62777067  0.83128374    -0.10300
C404        C  0.80576030  0.62669819  0.85362445    -0.11800
C405        C  0.09148914  0.50980549  0.81782952    -0.10300
C406        C  0.06848666  0.53226498  0.83645956    -0.11800
C407        C  0.30960036  0.46223159  0.86380270    -0.10300
C408        C  0.26243353  0.46207761  0.84286910    -0.11800
C409        C  0.59472310  0.35240437  0.81962427    -0.10300
C410        C  0.57297726  0.37381939  0.84150432    -0.11800
C411        C  0.45529424  0.57584600  0.08646457    -0.10300
C412        C  0.43198163  0.59816279  0.10490863    -0.11800
C413        C  0.71634954  0.47588466  0.06935053    -0.10300
C414        C  0.76324804  0.47251108  0.09010987    -0.11800
C415        C  0.92850401  0.41653714  0.10831816    -0.10300
C416        C  0.94958523  0.39499471  0.08549992    -0.11800
C417        C  0.43996180  0.54829247  0.78998902    -0.10300
C418        C  0.42500736  0.57422113  0.74936363    -0.11800
C419        C  0.21156187  0.62959704  0.56464310    -0.10300
C420        C  0.25855265  0.63012069  0.58486239    -0.11800
C421        C  0.08413516  0.37807761  0.63280506    -0.10300
C422        C  0.09910278  0.40374329  0.67397416    -0.11800
C423        C  0.94500253  0.55123849  0.29496565    -0.10300
C424        C  0.93127807  0.52344847  0.25792601    -0.11800
C425        C  0.80456383  0.63893708  0.34673166    -0.10300
C426        C  0.75739091  0.63738224  0.32483467    -0.11800
C427        C  0.59070989  0.68982674  0.15435927    -0.10300
C428        C  0.58138421  0.39782883  0.13989689    -0.11800
C429        C  0.09426121  0.53225542  0.16945809    -0.10300
C430        C  0.07954508  0.55888537  0.13028051    -0.11800
C431        C  0.09117471  0.42533973  0.31417874    -0.10300
C432        C  0.06869497  0.40364784  0.33467469    -0.11800
C433        C  0.30647519  0.47397133  0.35154151    -0.10300
C434        C  0.25943151  0.47326888  0.33104841    -0.11800
C435        C  0.59518728  0.56682411  0.66690668    -0.10300
C436        C  0.58031017  0.53999642  0.62789118    -0.11800
C437        C  0.42144822  0.70825277  0.24016568    -0.10300
C438        C  0.43758867  0.38958129  0.27936144    -0.11800
C439        C  0.45129535  0.36016574  0.57257269    -0.10300
C440        C  0.42855920  0.33669568  0.59012853    -0.11800
C441        C  0.56889671  0.56450972  0.32902601    -0.10300
C442        C  0.59045275  0.58599727  0.30687726    -0.11800
C443        C  0.75980973  0.46322590  0.58121265    -0.10300
C444        C  0.71269999  0.46053626  0.55866564    -0.11800
C445        C  0.92562189  0.40794707  0.74844207    -0.10300
C446        C  0.94030086  0.38075596  0.78659709    -0.11800
C447        C  0.92781694  0.51820961  0.60876287    -0.10300
C448        C  0.94988666  0.54020994  0.58822429    -0.11800
C449        C  0.89735918  0.76569707  0.69508222     0.06100
C450        C  0.92590769  0.79130277  0.67551147    -0.10000
C451        C  0.89931840  0.81829919  0.62387225     0.03600
C452        C  0.84391496  0.81967443  0.59245605    -0.08600
C453        C  0.81547780  0.79426323  0.61259152     0.06100
C454        C  0.84229504  0.76738332  0.66366642    -0.08000
H455        H  0.96840684  0.78998772  0.70022841     0.11700
H456        H  0.82307797  0.84047156  0.55276122     0.09200
H457        H  0.82021456  0.74763518  0.67892367     0.09100
O458        O  0.49683508  0.87302853  0.33194937    -0.77900
O459        O  0.44794809  0.74003209  0.49365911    -0.62600
O460        O  0.48080333  0.83514443  0.43280191    -1.09200
C461        C  0.65643138  0.79287521  0.54365442     1.09000
O462        O  0.52045287  0.73543657  0.59091230    -0.75800
O463        O  0.56638325  0.80694268  0.61503884    -0.63400
Ni464      Ni  0.43901587  0.84881973  0.34053318     1.34900
C465        C  0.57215880  0.84120370  0.59814145     0.87700
O466        O  0.39242332  0.80243673  0.43462686    -0.76300
O467        O  0.37411740  0.82905743  0.33646950    -0.86600
C468        C  0.47322631  0.72598984  0.55152065     0.87300
O469        O  0.45168602  0.80040198  0.30852499    -0.64800
O470        O  0.64277926  0.77822585  0.58486261    -0.84100
C471        C  0.44503199  0.76635396  0.32565927     0.88100
C472        C  0.36007842  0.81498531  0.37774578     1.09700
H473        H  0.53747818  0.75244755  0.46247614     0.41500
O474        O  0.53551007  0.77348265  0.48964256    -1.06800
O475        O  0.57286503  0.84912993  0.54373923    -0.63400
Ni476      Ni  0.55285019  0.82149982  0.46091091     1.26300
O477        O  0.44323840  0.75917899  0.37962459    -0.63600
O478        O  0.62390419  0.80660304  0.48785149    -0.75900
C479        C  0.54351522  0.88330124  0.37254244     0.87500
O480        O  0.56828741  0.86917352  0.43036678    -0.63100
Ni481      Ni  0.57794879  0.75896132  0.58140662     1.27400
Ni482      Ni  0.46348584  0.78733503  0.46202858     1.26100
H483        H  0.47856614  0.85641698  0.45941693     0.42100
C484        C  0.11864116  0.83711589  0.21956920     0.06100
C485        C  0.17373064  0.83688350  0.25320006    -0.10000
C486        C  0.20073174  0.80971117  0.30362957     0.03600
C487        C  0.17247550  0.78261998  0.32114020    -0.08600
C488        C  0.11706920  0.78268097  0.28782118     0.06100
C489        C  0.09021874  0.80983469  0.23652091    -0.08000
H490        H  0.19571383  0.85790744  0.23996127     0.11700
H491        H  0.19346391  0.76167149  0.36052293     0.09200
H492        H  0.04768778  0.80986169  0.21006588     0.09100
C493        C  0.62296778  0.01275410  0.24010333     0.06100
C494        C  0.67755579  0.00873591  0.26640058    -0.10000
C495        C  0.70460406  0.98086378  0.31552909     0.03600
C496        C  0.67689221  0.95646398  0.33816532    -0.08600
C497        C  0.62201911  0.96038549  0.31196918     0.06100
C498        C  0.59525565  0.98893980  0.26341996    -0.08000
H499        H  0.69902455  0.02724868  0.24839318     0.11700
H500        H  0.69782680  0.93447379  0.37563705     0.09200
H501        H  0.55323021  0.99258955  0.24360645     0.09100
O502        O  0.99546235  0.69264563  0.31369342    -0.77900
O503        O  0.95067898  0.90641676  0.49938825    -0.62600
O504        O  0.98247336  0.99599311  0.42366623    -1.09200
C505        C  0.15774223  0.95691995  0.54006277     1.09000
O506        O  0.02410374  0.90399708  0.59598768    -0.75800
O507        O  0.06226799  0.65083380  0.60775766    -0.63400
Ni508      Ni  0.93901463  0.00565742  0.33019854     1.34900
C509        C  0.06699240  0.68307529  0.58342758     0.87700
O510        O  0.89531599  0.96719564  0.43312408    -0.76300
O511        O  0.87495446  0.98810947  0.33094001    -0.86600
C512        C  0.97679385  0.89370805  0.55809141     0.87300
O513        O  0.95128320  0.95518868  0.30472992    -0.64800
O514        O  0.14409474  0.94774659  0.58421657    -0.84100
C515        C  0.94552634  0.92251506  0.32702993     0.88100
C516        C  0.86218764  0.97765269  0.37531524     1.09700
H517        H  0.03941744  0.91303131  0.46609856     0.41500
O518        O  0.03755245  0.93620559  0.48928361    -1.06800
O519        O  0.06922069  0.68582628  0.52881229    -0.63400
Ni520      Ni  0.05418033  0.98108695  0.45202888     1.26300
O521        O  0.94463984  0.91856051  0.38232547    -0.63600
O522        O  0.12496088  0.96491369  0.48071599    -0.75900
C523        C  0.04120322  0.70550001  0.35263297     0.87500
O524        O  0.06618702  0.69540040  0.41298308    -0.63100
Ni525      Ni  0.08029091  0.92790861  0.58328481     1.27400
Ni526      Ni  0.96582602  0.95100826  0.46072668     1.26100
H527        H  0.97533248  0.68748444  0.44123612     0.42100
C528        C  0.40019395  0.93626282  0.69374864     0.06100
C529        C  0.34506195  0.93589520  0.66185978    -0.10000
C530        C  0.31671762  0.96269157  0.61127408     0.03600
C531        C  0.34215934  0.65324129  0.59058162    -0.08600
C532        C  0.39736993  0.65200405  0.62029348     0.06100
C533        C  0.42525462  0.62651881  0.67380019    -0.08000
H534        H  0.32414525  0.91460793  0.67631981     0.11700
H535        H  0.32044772  0.67300570  0.54948734     0.09200
H536        H  0.46776669  0.62568513  0.69737075     0.09100
C537        C  0.89536518  0.83381322  0.19411905     0.06100
C538        C  0.92419497  0.80809113  0.17528723    -0.10000
C539        C  0.89778680  0.78194923  0.12236155     0.03600
C540        C  0.84249633  0.78120770  0.08920086    -0.08600
C541        C  0.81385045  0.80664778  0.10870294     0.06100
C542        C  0.84028405  0.83292706  0.16086472    -0.08000
H543        H  0.96673138  0.80861551  0.20144616     0.11700
H544        H  0.82189931  0.76094068  0.04852602     0.09200
H545        H  0.81793591  0.85277878  0.17552843     0.09100
O546        O  0.51869546  0.85509844  0.09194904    -0.77900
O547        O  0.56518849  0.73946689  0.90501851    -0.62600
O548        O  0.53562377  0.82797800  0.98455639    -1.09200
C549        C  0.35871074  0.79471808  0.86043481     1.09000
O550        O  0.49211156  0.73824171  0.80787442    -0.75800
O551        O  0.45553478  0.81320230  0.79947553    -0.63400
Ni552      Ni  0.57652013  0.83480448  0.07911614     1.34900
C553        C  0.44990761  0.84585219  0.82207067     0.87700
O554        O  0.62273762  0.79787916  0.97719345    -0.76300
O555        O  0.64111067  0.81790949  0.07942766    -0.86200
C556        C  0.53904801  0.72736655  0.84599041     0.87300
O557        O  0.56280152  0.78354335  0.10033546    -0.64800
O558        O  0.37281605  0.78485306  0.81703548    -0.84100
C559        C  0.56786918  0.75139182  0.07606938     0.88100
C560        C  0.65496566  0.80770686  0.03589265     1.09700
H561        H  0.47458186  0.74737066  0.93609254     0.41500
O562        O  0.47818744  0.77047462  0.91405061    -1.06800
O563        O  0.44630127  0.84934047  0.87574319    -0.63400
Ni564      Ni  0.46291873  0.81575004  0.95192454     1.26300
O565        O  0.56926768  0.74879613  0.02096364    -0.63600
O566        O  0.39100647  0.80221500  0.92008975    -0.75900
C567        C  0.47368298  0.86903553  0.05291269     0.87500
O568        O  0.44965291  0.86054313  0.99178517    -0.63100
Ni569      Ni  0.43634836  0.76343096  0.81948736     1.27400
Ni570      Ni  0.55106945  0.78339401  0.94572034     1.26100
H571        H  0.53962546  0.85131915  0.96328756     0.42100
C572        C  0.11646691  0.77414101  0.71023329     0.06100
C573        C  0.17151231  0.77447621  0.74017999    -0.10000
C574        C  0.20013505  0.80109803  0.79084048     0.03600
C575        C  0.17373827  0.82737652  0.81246304    -0.08600
C576        C  0.11846384  0.82712360  0.78281071     0.06100
C577        C  0.08982696  0.80075980  0.73100842    -0.08000
H578        H  0.19216666  0.75384720  0.72416729     0.11700
H579        H  0.19606090  0.84770655  0.85237042     0.09200
H580        H  0.04730698  0.80073737  0.70741151     0.09100
C581        C  0.62464125  0.92459463  0.74031037     0.06100
C582        C  0.59127444  0.62319494  0.73315924    -0.10000
C583        C  0.61704568  0.65117029  0.78322737     0.03600
C584        C  0.67237608  0.65282100  0.81587475    -0.08600
C585        C  0.70663431  0.95498942  0.81840695     0.06100
C586        C  0.67948741  0.92756626  0.76845551    -0.08000
H587        H  0.54877295  0.62183632  0.70750936     0.11700
H588        H  0.69249881  0.67434438  0.85455584     0.09200
H589        H  0.70103211  0.90879122  0.75093321     0.09100
C590        C  0.40429377  0.99701875  0.19876898     0.06100
C591        C  0.43023306  0.96979169  0.17781276    -0.10000
C592        C  0.40099825  0.94404892  0.12522614     0.03600
C593        C  0.34571085  0.94511679  0.09454684    -0.08600
C594        C  0.31980647  0.97195642  0.11601552     0.06100
C595        C  0.34912276  0.99784486  0.16782746    -0.08000
H596        H  0.47270957  0.96869876  0.20173286     0.11700
H597        H  0.32296941  0.92526789  0.05402184     0.09200
H598        H  0.32892361  0.01883591  0.18389172     0.09100
O599        O  0.02301497  0.69850138  0.09417379    -0.77900
O600        O  0.06992925  0.90945696  0.91759173    -0.62600
O601        O  0.04056391  0.00046330  0.99249842    -1.09200
C602        C  0.86418270  0.95929680  0.87804384     1.09000
O603        O  0.99879102  0.91213413  0.81875408    -0.75800
O604        O  0.95511889  0.64379799  0.80800310    -0.63400
Ni605      Ni  0.08322688  0.00949767  0.08633875     1.34900
C606        C  0.94740680  0.67669721  0.82796771     0.87700
O607        O  0.12794507  0.96912931  0.98587111    -0.76300
O608        O  0.14696032  0.98911739  0.08803430    -0.86600
C609        C  0.04495040  0.89983158  0.85699710     0.87300
O610        O  0.06665589  0.95979394  0.11001401    -0.64800
O611        O  0.87692617  0.94738639  0.83433040    -0.84100
C612        C  0.07216887  0.92672753  0.08853011     0.88100
C613        C  0.16065908  0.97833577  0.04467407     1.09700
H614        H  0.98143092  0.91865808  0.95011288     0.41500
O615        O  0.98407083  0.94140201  0.92654671    -1.06800
O616        O  0.94392178  0.68105028  0.88158054    -0.63400
Ni617      Ni  0.96822387  0.98681151  0.96330116     1.26300
O618        O  0.07511867  0.92232056  0.03455170    -0.63600
O619        O  0.89709536  0.97170293  0.93473093    -0.75900
C620        C  0.97538655  0.70781179  0.05629789     0.87500
O621        O  0.94920554  0.69446582  0.99807301    -0.63100
Ni622      Ni  0.94134069  0.93161018  0.83297688     1.27400
Ni623      Ni  0.05635137  0.95464971  0.95634301     1.26100
H624        H  0.03833863  0.68684422  0.96479980     0.42100
C625        C  0.21598397  0.97541109  0.06442952    -0.10300
C626        C  0.26310198  0.97319830  0.08558124    -0.11800
C627        C  0.76284645  0.95820588  0.84468451    -0.10300
C628        C  0.80945207  0.95912738  0.86175000    -0.11800
C629        C  0.09151917  0.85306147  0.80719665    -0.10300
C630        C  0.07013450  0.87442453  0.82972386    -0.11800
C631        C  0.30354814  0.79844180  0.84023310    -0.10300
C632        C  0.25664832  0.80081889  0.82010292    -0.11800
C633        C  0.58709986  0.67775655  0.80223305    -0.10300
C634        C  0.56408039  0.70024724  0.82087151    -0.11800
C635        C  0.44870726  0.89509818  0.07965554    -0.10300
C636        C  0.42748448  0.91720669  0.10141072    -0.11800
C637        C  0.71014775  0.80643742  0.05521137    -0.10300
C638        C  0.75726496  0.80577205  0.07657789    -0.11800
C639        C  0.92703285  0.75621760  0.10114799    -0.10300
C640        C  0.94973700  0.73438197  0.08118046    -0.11800
C641        C  0.44267721  0.88012569  0.78225629    -0.10300
C642        C  0.42785298  0.90724814  0.74394853    -0.11800
C643        C  0.21296761  0.95969287  0.55942746    -0.10300
C644        C  0.26002660  0.96191392  0.58027640    -0.11800
C645        C  0.07422803  0.71784163  0.62212422    -0.10300
C646        C  0.08873236  0.74514455  0.66005586    -0.11800
C647        C  0.93601913  0.88872961  0.28555231    -0.10300
C648        C  0.92123477  0.86227039  0.24594295    -0.11800
C649        C  0.80736771  0.97701279  0.35845960    -0.10300
C650        C  0.76073585  0.97746582  0.34124886    -0.11800
C651        C  0.59629483  0.04109368  0.18836080    -0.10300
C652        C  0.57613217  0.71662015  0.11527118    -0.11800
C653        C  0.09264076  0.86616465  0.16861992    -0.10300
C654        C  0.07918487  0.89297857  0.12958156    -0.11800
C655        C  0.08820964  0.75534815  0.30748541    -0.10300
C656        C  0.06601365  0.73252246  0.32689611    -0.11800
C657        C  0.30468715  0.81205912  0.35766372    -0.10300
C658        C  0.25751066  0.80989850  0.33602940    -0.11800
C659        C  0.59781111  0.89681215  0.68775493    -0.10300
C660        C  0.58213091  0.87216232  0.64499030    -0.11800
C661        C  0.43287886  0.02544323  0.25009778    -0.10300
C662        C  0.43572822  0.73456702  0.28015563    -0.11800
C663        C  0.44704884  0.69881923  0.57470844    -0.10300
C664        C  0.42504053  0.67701801  0.59570591    -0.11800
C665        C  0.56993285  0.91157471  0.35133224    -0.10300
C666        C  0.59318707  0.93440070  0.33361500    -0.11800
C667        C  0.75875103  0.79557814  0.58228598    -0.10300
C668        C  0.71166871  0.79469798  0.56229519    -0.11800
C669        C  0.92343722  0.73669526  0.74609934    -0.10300
C670        C  0.93822084  0.71012067  0.78561421    -0.11800
C671        C  0.92853104  0.84445275  0.60268293    -0.10300
C672        C  0.95136491  0.86671228  0.58320538    -0.11800
loop_ 
_geom_bond_atom_site_label_1 
_geom_bond_atom_site_label_2 
_geom_bond_distance 
_geom_bond_site_symmetry_2 
_ccdc_geom_bond_type 
C1            C2   1.401       .  A
C1            C6   1.397       .  A
C1          C221   1.439       .  S
C2            C3   1.405       .  A
C2            H7   1.079       .  S
C3            C4   1.404       .  A
C3          C223   1.443       .  S
C4            C5   1.401       .  A
C4            H8   1.084       .  S
C5            C6   1.397       .  A
C5          C219   1.437       .  S
C6            H9   1.085       .  S
O10         Ni16   1.940       .  S
O10          C31   1.271       .  A
O11         Ni34   1.899       .  S
O11          C20   1.263       .  A
O12         Ni16   1.927       .  S
O12         Ni34   1.914       .  S
O12         Ni28   1.908       .  S
O12          H35   0.966       .  S
C13         C220   1.433       .  S
C13          O30   1.266       .  A
C13          O22   1.273       .  A
O14         Ni33   1.938       .  S
O14          C20   1.271       .  A
O15         Ni33   1.906       .  S
O15          C17   1.267       .  A
Ni16         O19   1.935       .  S
Ni16         O21   1.909       .  S
C17         C212   1.436       .  S
C17          O27   1.272       .  A
O18         Ni34   1.902       .  S
O18          C24   1.267       .  A
O19          C24   1.274       .  A
C20         C215   1.438       .  S
O21          C23   1.268       .  A
O22         Ni33   1.934       .  S
C23         C214   1.440       .  S
C23          O29   1.273       .  A
C24         C209   1.435       .  S
H25          O26   0.966       .  S
O26         Ni34   1.910       .  S
O26         Ni28   1.915       .  S
O26         Ni33   1.929       .  S
O27         Ni28   1.936       .  S
Ni28         O32   1.900       .  S
Ni28         O30   1.900       .  S
O29         Ni34   1.939       .  S
C31         C217   1.439       .  S
C31          O32   1.263       .  A
C36          C37   1.398       .  A
C36          C41   1.404       .  A
C36         C205   1.443       .  S
C37          C38   1.397       .  A
C37          H42   1.085       .  S
C38          C39   1.403       .  A
C38         C210   1.440       .  S
C39          C40   1.405       .  A
C39          H43   1.084       .  S
C40          C41   1.407       .  A
C40         C207   1.448       .  S
C41          H44   1.080       .  S
C45          C46   1.397       .  A
C45          C50   1.401       .  A
C45         C203   1.440       .  S
C46          C47   1.397       .  A
C46          H51   1.085       .  S
C47          C48   1.401       .  A
C47         C202   1.436       .  S
C48          C49   1.403       .  A
C48          H52   1.084       .  S
C49          C50   1.404       .  A
C49         C218   1.444       .  S
C50          H53   1.077       .  S
O54        Ni508   1.936       .  S
O54          C75   1.271   1_655  A
O55         Ni78   1.902       .  S
O55          C64   1.265       .  A
O56         Ni60   1.928       .  S
O56         Ni78   1.915       .  S
O56         Ni72   1.914   1_655  S
O56         H303   0.966       .  S
C57         C195   1.434       .  S
C57          O74   1.264       .  A
C57          O66   1.272       .  A
O58         Ni77   1.933       .  S
O58          C64   1.270   1_455  A
O59        Ni525   1.908       .  S
O59          C61   1.270   1_565  A
Ni60         O63   1.934       .  S
Ni60         O65   1.906       .  S
Ni60        O278   1.933       .  S
C61         C197   1.436       .  S
C61          O71   1.275       .  A
O62         Ni78   1.898       .  S
O62          C68   1.264       .  A
O63          C68   1.271       .  A
C64         C224   1.438       .  S
O65          C67   1.269       .  A
O66         Ni77   1.938       .  S
C67         C199   1.437       .  S
C67          O73   1.275       .  A
C68         C201   1.431       .  S
H69          O70   0.966       .  S
O70         Ni78   1.911   1_455  S
O70         Ni72   1.912       .  S
O70         Ni77   1.926       .  S
O71        Ni520   1.943   1_545  S
Ni72         O74   1.899       .  S
Ni72        O295   1.945       .  S
Ni72        O300   1.901       .  S
O73         Ni78   1.944       .  S
C75         C208   1.444       .  S
C75          O76   1.266       .  A
O76        Ni520   1.908   1_545  S
Ni77        O283   1.904       .  S
H79         O504   0.966   1_545  S
C80          C81   1.398       .  A
C80         C309   1.403       .  A
C80         C194   1.443       .  S
C81          C82   1.398       .  A
C81          H86   1.085       .  S
C82         C307   1.402       .  A
C82         C196   1.439       .  S
C83          C84   1.404       .  A
C83         C530   1.402       .  A
C83          H87   1.084   1_565  S
C84          C85   1.403       .  A
C84         C216   1.443   1_565  S
C85         C528   1.401       .  A
C85          H88   1.079       .  S
C89          C90   1.403       .  A
C89          C94   1.397       .  A
C89         C200   1.442       .  S
C90          C91   1.407       .  A
C90          H95   1.080       .  S
C91          C92   1.405       .  A
C91         C191   1.448       .  S
C92          C93   1.403       .  A
C92          H96   1.084       .  S
C93          C94   1.397       .  A
C93         C190   1.440       .  S
C94          H97   1.085       .  S
O98        Ni104   1.934       .  S
O98         C119   1.270       .  A
O99        Ni122   1.899       .  S
O99         C108   1.263       .  A
O100       Ni104   1.929   1_556  S
O100       Ni122   1.915       .  S
O100       Ni116   1.913       .  S
O100        H123   0.967       .  S
C101        C183   1.435       .  S
C101        O118   1.267       .  A
C101        O110   1.274       .  A
O102       Ni121   1.938       .  S
O102        C108   1.271       .  A
O103       Ni121   1.908       .  S
O103        C105   1.268       .  A
Ni104       O107   1.933       .  S
Ni104       O109   1.904       .  S
C105        C193   1.438       .  S
C105        O115   1.273       .  A
O106       Ni122   1.903       .  S
O106        C112   1.266   1_556  A
O107        C112   1.273       .  A
C108        C186   1.437       .  S
O109        C111   1.267       .  A
O110       Ni121   1.935       .  S
C111        C204   1.434       .  S
C111        O117   1.272       .  A
C112        C189   1.435       .  S
H113        O114   0.966       .  S
O114       Ni122   1.909       .  S
O114       Ni116   1.912       .  S
O114       Ni121   1.927       .  S
O115       Ni116   1.936       .  S
Ni116       O120   1.899       .  S
Ni116       O118   1.903       .  S
O117       Ni122   1.934   1_554  S
C119        C187   1.435       .  S
C119        O120   1.263   1_554  A
C124        C125   1.398       .  A
C124        C129   1.402       .  A
C124        C198   1.441       .  S
C125        C126   1.397       .  A
C125        H130   1.085       .  S
C126        C127   1.403       .  A
C126        C184   1.440       .  S
C127        C128   1.405       .  A
C127        H131   1.084       .  S
C128        C129   1.406       .  A
C128        C181   1.446       .  S
C129        H132   1.080       .  S
C133        C138   1.398       .  A
C133        C358   1.401       .  A
C133        C211   1.441       .  S
C134        C135   1.403       .  A
C134        C581   1.399       .  A
C134        H139   1.080       .  S
C135        C136   1.404       .  A
C135        C185   1.442   1_565  S
C136        C585   1.402       .  A
C136        H140   1.084   1_565  S
C137        C138   1.397       .  A
C137        C360   1.401       .  A
C137        C179   1.436       .  S
C138        H141   1.085       .  S
C142        C143   1.399       .  A
C142        C147   1.396       .  A
C142        C213   1.437       .  S
C143        C144   1.402       .  A
C143        H148   1.077       .  S
C144        C145   1.402       .  A
C144        C188   1.440       .  S
C145        C146   1.401       .  A
C145        H149   1.084       .  S
C146        C147   1.396       .  A
C146        C178   1.433       .  S
C147        H150   1.085       .  S
O151       Ni605   1.937       .  S
O151        C172   1.271   1_455  A
O152       Ni175   1.903       .  S
O152        C161   1.264       .  A
O153       Ni157   1.926   1_556  S
O153       Ni175   1.913       .  S
O153       Ni169   1.906   1_455  S
O153        H400   0.966       .  S
C154        C180   1.431       .  S
C154        O171   1.263       .  A
C154        O163   1.272       .  A
O155       Ni174   1.936       .  S
O155        C161   1.271   1_655  A
O156       Ni622   1.904       .  S
O156        C158   1.267   1_565  A
Ni157       O160   1.935       .  S
Ni157       O162   1.907       .  S
Ni157       O375   1.935       .  S
C158        C222   1.434       .  S
C158        O168   1.273       .  A
O159       Ni175   1.894       .  S
O159        C165   1.264   1_556  A
O160        C165   1.272       .  A
C161        C182   1.442       .  S
O162        C164   1.268       .  A
O163       Ni174   1.937       .  S
C164        C206   1.438       .  S
C164        O170   1.274       .  A
C165        C177   1.428       .  S
H166        O167   0.966       .  S
O167       Ni175   1.914   1_655  S
O167       Ni169   1.917       .  S
O167       Ni174   1.928       .  S
O168       Ni617   1.936   1_545  S
Ni169       O171   1.896       .  S
Ni169       O392   1.944       .  S
Ni169       O397   1.908       .  S
O170       Ni175   1.942   1_554  S
C172        C192   1.443       .  S
C172        O173   1.265       .  A
O173       Ni617   1.905   1_544  S
Ni174       O380   1.906       .  S
H176        O601   0.966       .  S
C177        C178   1.202       .  T
C179        C180   1.204       .  T
C181        C182   1.210       .  T
C183        C184   1.206       .  T
C185        C186   1.207       .  T
C187        C188   1.206       .  T
C189        C190   1.206       .  T
C191        C192   1.211       .  T
C193        C194   1.208       .  T
C195        C196   1.205       .  T
C197        C198   1.207       .  T
C199        C200   1.207       .  T
C201        C202   1.204       .  T
C203        C428   1.206       .  T
C204        C651   1.205       .  T
C205        C206   1.208       .  T
C207        C208   1.211       .  T
C209        C210   1.206       .  T
C211        C212   1.206       .  T
C213        C438   1.204       .  T
C214        C661   1.209       .  T
C215        C216   1.208       .  T
C217        C218   1.208       .  T
C219        C220   1.204       .  T
C221        C222   1.205       .  T
C223        C224   1.208       .  T
C225        C226   1.401       .  A
C225        C230   1.398       .  A
C225        C445   1.440       .  S
C226        C227   1.404       .  A
C226        H231   1.081       .  S
C227        C228   1.403       .  A
C227        C447   1.440       .  S
C228        C229   1.400       .  A
C228        H232   1.085       .  S
C229        C230   1.397       .  A
C229        C443   1.436       .  S
C230        H233   1.085       .  S
O234       Ni240   1.932       .  S
O234        C255   1.269       .  A
O235       Ni258   1.905       .  S
O235        C244   1.265       .  A
O236       Ni240   1.928       .  S
O236       Ni258   1.916       .  S
O236       Ni252   1.910       .  S
O236        H259   0.966       .  S
C237        C444   1.431       .  S
C237        O254   1.264       .  A
C237        O246   1.271       .  A
O238       Ni257   1.939       .  S
O238        C244   1.272       .  A
O239       Ni257   1.909       .  S
O239        C241   1.271       .  A
Ni240       O243   1.932       .  S
Ni240       O245   1.903       .  S
C241        C436   1.437       .  S
C241        O251   1.276       .  A
O242       Ni258   1.900       .  S
O242        C248   1.265       .  A
O243        C248   1.271       .  A
C244        C439   1.444       .  S
O245        C247   1.267       .  A
O246       Ni257   1.935       .  S
C247        C438   1.432       .  S
C247        O253   1.273       .  A
C248        C433   1.431       .  S
H249        O250   0.966       .  S
O250       Ni258   1.914       .  S
O250       Ni252   1.915       .  S
O250       Ni257   1.927       .  S
O251       Ni252   1.943       .  S
Ni252       O256   1.906       .  S
Ni252       O254   1.898       .  S
O253       Ni258   1.936       .  S
C255        C441   1.440       .  S
C255        O256   1.265       .  A
C260        C261   1.397       .  A
C260        C265   1.400       .  A
C260        C429   1.438       .  S
C261        C262   1.397       .  A
C261        H266   1.085       .  S
C262        C263   1.401       .  A
C262        C434   1.436       .  S
C263        C264   1.403       .  A
C263        H267   1.084       .  S
C264        C265   1.404       .  A
C264        C431   1.442       .  S
C265        H268   1.079       .  S
C269        C270   1.399       .  A
C269        C274   1.404       .  A
C269        C427   1.442       .  S
C270        C271   1.397       .  A
C270        H275   1.085       .  S
C271        C272   1.400       .  A
C271        C426   1.437       .  S
C272        C273   1.403       .  A
C272        H276   1.085       .  S
C273        C274   1.406       .  A
C273        C442   1.444       .  S
C274        H277   1.081       .  S
O278        C299   1.270   1_655  A
O279       Ni302   1.901       .  S
O279        C288   1.264       .  A
O280       Ni284   1.927       .  S
O280       Ni302   1.914       .  S
O280       Ni296   1.910   1_655  S
O280        H527   0.966       .  S
C281        C419   1.430       .  S
C281        O298   1.264       .  A
C281        O290   1.271       .  A
O282       Ni301   1.931       .  S
O282        C288   1.269   1_455  A
O283        C285   1.268       .  A
Ni284       O502   1.938       .  S
Ni284       O287   1.936       .  S
Ni284       O289   1.909       .  S
C285        C421   1.436       .  S
C285        O295   1.275       .  A
O286       Ni302   1.899       .  S
O286        C292   1.265       .  A
O287        C292   1.272       .  A
C288        C448   1.436       .  S
O289        C291   1.269       .  A
O290       Ni301   1.932       .  S
C291        C423   1.438       .  S
C291        O297   1.274       .  A
C292        C425   1.432       .  S
H293        O294   0.966       .  S
O294       Ni302   1.912   1_455  S
O294       Ni296   1.916       .  S
O294       Ni301   1.928       .  S
Ni296       O519   1.941       .  S
Ni296       O524   1.905       .  S
Ni296       O298   1.898       .  S
O297       Ni302   1.941       .  S
C299        C432   1.438       .  S
C299        O300   1.264       .  A
Ni301       O507   1.904       .  S
C304        C305   1.397       .  A
C304        C533   1.402       .  A
C304        C418   1.440       .  S
C305        C306   1.397       .  A
C305        H310   1.085       .  S
C306        C531   1.400       .  A
C306        C420   1.435       .  S
C307        C308   1.405       .  A
C307        H311   1.084       .  S
C308        C309   1.407       .  A
C308        C440   1.448       .  S
C309        H312   1.079       .  S
C313        C314   1.404       .  A
C313        C318   1.397       .  A
C313        C424   1.442       .  S
C314        C315   1.407       .  A
C314        H319   1.079       .  S
C315        C316   1.404       .  A
C315        C415   1.447       .  S
C316        C317   1.401       .  A
C316        H320   1.084       .  S
C317        C318   1.396       .  A
C317        C414   1.437       .  S
C318        H321   1.085       .  S
O322       Ni328   1.935       .  S
O322        C343   1.271       .  A
O323       Ni346   1.901       .  S
O323        C332   1.263       .  A
O324       Ni328   1.928   1_556  S
O324       Ni346   1.914       .  S
O324       Ni340   1.917       .  S
O324        H347   0.967       .  S
C325        C407   1.434       .  S
C325        O342   1.267       .  A
C325        O334   1.272       .  A
O326       Ni345   1.934       .  S
O326        C332   1.270       .  A
O327       Ni345   1.904       .  S
O327        C329   1.267       .  A
Ni328       O331   1.938       .  S
Ni328       O333   1.905       .  S
C329        C417   1.435       .  S
C329        O339   1.273       .  A
O330       Ni346   1.897       .  S
O330        C336   1.263   1_556  A
O331        C336   1.272       .  A
C332        C410   1.437       .  S
O333        C335   1.269       .  A
O334       Ni345   1.932       .  S
C335        C428   1.435       .  S
C335        O341   1.275       .  A
C336        C413   1.432       .  S
H337        O338   0.966       .  S
O338       Ni346   1.907       .  S
O338       Ni340   1.914       .  S
O338       Ni345   1.927       .  S
O339       Ni340   1.937       .  S
Ni340       O344   1.903   1_556  S
Ni340       O342   1.904       .  S
O341       Ni346   1.943   1_554  S
C343        C411   1.440       .  S
C343        O344   1.265       .  A
C348        C349   1.399       .  A
C348        C353   1.402       .  A
C348        C422   1.441       .  S
C349        C350   1.399       .  A
C349        H354   1.085       .  S
C350        C351   1.401       .  A
C350        C408   1.439       .  S
C351        C352   1.404       .  A
C351        H355   1.084       .  S
C352        C353   1.405       .  A
C352        C405   1.444       .  S
C353        H356   1.081       .  S
C357        C582   1.402       .  A
C357        C362   1.399       .  A
C357        C435   1.443       .  S
C358        C359   1.403       .  A
C358        H363   1.079       .  S
C359        C360   1.403       .  A
C359        C409   1.441       .  S
C360        H364   1.084       .  S
C361        C584   1.402       .  A
C361        C362   1.399       .  A
C361        C403   1.440       .  S
C362        H365   1.085       .  S
C366        C367   1.402       .  A
C366        C371   1.399       .  A
C366        C437   1.442       .  S
C367        C368   1.406       .  A
C367        H372   1.081       .  S
C368        C369   1.405       .  A
C368        C412   1.445       .  S
C369        C370   1.402       .  A
C369        H373   1.084       .  S
C370        C371   1.399       .  A
C370        C402   1.441       .  S
C371        H374   1.085       .  S
O375        C396   1.270   1_455  A
O376       Ni399   1.902       .  S
O376        C385   1.265       .  A
O377       Ni381   1.928   1_556  S
O377       Ni399   1.914       .  S
O377       Ni393   1.917   1_455  S
O377        H624   0.966       .  S
C378        C404   1.435       .  S
C378        O395   1.265       .  A
C378        O387   1.272       .  A
O379       Ni398   1.935       .  S
O379        C385   1.271   1_655  A
O380        C382   1.269       .  A
Ni381       O599   1.932       .  S
Ni381       O384   1.937       .  S
Ni381       O386   1.904       .  S
C382        C446   1.435       .  S
C382        O392   1.276       .  A
O383       Ni399   1.904       .  S
O383        C389   1.265   1_556  A
O384        C389   1.271       .  A
C385        C406   1.439       .  S
O386        C388   1.268       .  A
O387       Ni398   1.937       .  S
C388        C430   1.432       .  S
C388        O394   1.274       .  A
C389        C401   1.437       .  S
H390        O391   0.967       .  S
O391       Ni399   1.914   1_655  S
O391       Ni393   1.911       .  S
O391       Ni398   1.926       .  S
Ni393       O616   1.943       .  S
Ni393       O621   1.902       .  S
Ni393       O395   1.904       .  S
O394       Ni399   1.939   1_554  S
C396        C416   1.442       .  S
C396        O397   1.266   1_554  A
Ni398       O604   1.907       .  S
C401        C402   1.207       .  T
C403        C404   1.206       .  T
C405        C406   1.208       .  T
C407        C408   1.206       .  T
C409        C410   1.207       .  T
C411        C412   1.209       .  T
C413        C414   1.204       .  T
C415        C416   1.210       .  T
C417        C418   1.206       .  T
C419        C420   1.203       .  T
C421        C422   1.207       .  T
C423        C424   1.208       .  T
C425        C426   1.204       .  T
C427        C652   1.207       .  T
C429        C430   1.204       .  T
C431        C432   1.207       .  T
C433        C434   1.204       .  T
C435        C436   1.207       .  T
C437        C662   1.207       .  T
C439        C440   1.211       .  T
C441        C442   1.209       .  T
C443        C444   1.204       .  T
C445        C446   1.206       .  T
C447        C448   1.206       .  T
C449        C450   1.403       .  A
C449        C454   1.398       .  A
C449        C669   1.443       .  S
C450        C451   1.407       .  A
C450        H455   1.079       .  S
C451        C452   1.406       .  A
C451        C671   1.450       .  S
C452        C453   1.404       .  A
C452        H456   1.084       .  S
C453        C454   1.398       .  A
C453        C667   1.441       .  S
C454        H457   1.085       .  S
O458       Ni464   1.939       .  S
O458        C479   1.271       .  A
O459       Ni482   1.904       .  S
O459        C468   1.265       .  A
O460       Ni464   1.928       .  S
O460       Ni482   1.914       .  S
O460       Ni476   1.912       .  S
O460        H483   0.966       .  S
C461        C668   1.436       .  S
C461        O478   1.265       .  A
C461        O470   1.272       .  A
O462       Ni481   1.931       .  S
O462        C468   1.269       .  A
O463       Ni481   1.902       .  S
O463        C465   1.267       .  A
Ni464       O467   1.938       .  S
Ni464       O469   1.909       .  S
C465        C660   1.433       .  S
C465        O475   1.274       .  A
O466       Ni482   1.902       .  S
O466        C472   1.266       .  A
O467        C472   1.273       .  A
C468        C663   1.438       .  S
O469        C471   1.269       .  A
O470       Ni481   1.936       .  S
C471        C662   1.437       .  S
C471        O477   1.274       .  A
C472        C657   1.436       .  S
H473        O474   0.966       .  S
O474       Ni482   1.915       .  S
O474       Ni476   1.915       .  S
O474       Ni481   1.928       .  S
O475       Ni476   1.939       .  S
Ni476       O480   1.902       .  S
Ni476       O478   1.901       .  S
O477       Ni482   1.939       .  S
C479        C665   1.441       .  S
C479        O480   1.264       .  A
C484        C485   1.398       .  A
C484        C489   1.403       .  A
C484        C653   1.443       .  S
C485        C486   1.397       .  A
C485        H490   1.085       .  S
C486        C487   1.403       .  A
C486        C658   1.440       .  S
C487        C488   1.405       .  A
C487        H491   1.084       .  S
C488        C489   1.407       .  A
C488        C655   1.448       .  S
C489        H492   1.079       .  S
C493        C494   1.397       .  A
C493        C498   1.400   1_545  A
C493        C651   1.439       .  S
C494        C495   1.397   1_545  A
C494        H499   1.085       .  S
C495        C496   1.402       .  A
C495        C650   1.437       .  S
C496        C497   1.404       .  A
C496        H500   1.084       .  S
C497        C498   1.405       .  A
C497        C666   1.445       .  S
C498        H501   1.078       .  S
O502        C523   1.271   1_655  A
O503       Ni526   1.907       .  S
O503        C512   1.265       .  A
O504       Ni508   1.927   1_565  S
O504       Ni526   1.916       .  S
O504       Ni520   1.913   1_655  S
C505        C643   1.434       .  S
C505        O522   1.265       .  A
C505        O514   1.272       .  A
O506       Ni525   1.941       .  S
O506        C512   1.272   1_455  A
O507        C509   1.268       .  A
Ni508       O511   1.936   1_545  S
Ni508       O513   1.903   1_545  S
C509        C645   1.435       .  S
C509        O519   1.274       .  A
O510       Ni526   1.897       .  S
O510        C516   1.264       .  A
O511        C516   1.272       .  A
C512        C672   1.446       .  S
O513        C515   1.268       .  A
O514       Ni525   1.939       .  S
C515        C647   1.435       .  S
C515        O521   1.275       .  A
C516        C649   1.432       .  S
H517        O518   0.966       .  S
O518       Ni526   1.912   1_455  S
O518       Ni520   1.916       .  S
O518       Ni525   1.927       .  S
Ni520       O522   1.900       .  S
O521       Ni526   1.941       .  S
C523        C656   1.443       .  S
C523        O524   1.265       .  A
C528        C529   1.398       .  A
C528        C642   1.440       .  S
C529        C530   1.398       .  A
C529        H534   1.085       .  S
C530        C644   1.439       .  S
C531        C532   1.402       .  A
C531        H535   1.085       .  S
C532        C533   1.405       .  A
C532        C664   1.442       .  S
C533        H536   1.079       .  S
C537        C538   1.401       .  A
C537        C542   1.397       .  A
C537        C648   1.440       .  S
C538        C539   1.405       .  A
C538        H543   1.079       .  S
C539        C540   1.403       .  A
C539        C639   1.442       .  S
C540        C541   1.400       .  A
C540        H544   1.085       .  S
C541        C542   1.397       .  A
C541        C638   1.436       .  S
C542        H545   1.085       .  S
O546       Ni552   1.937       .  S
O546        C567   1.270       .  A
O547       Ni570   1.902       .  S
O547        C556   1.264       .  A
O548       Ni552   1.925   1_556  S
O548       Ni570   1.912       .  S
O548       Ni564   1.904       .  S
O548        H571   0.967       .  S
C549        C631   1.431       .  S
C549        O566   1.263       .  A
C549        O558   1.271       .  A
O550       Ni569   1.936       .  S
O550        C556   1.271       .  A
O551       Ni569   1.906       .  S
O551        C553   1.270       .  A
Ni552       O555   1.933       .  S
Ni552       O557   1.906       .  S
C553        C641   1.435       .  S
C553        O563   1.275       .  A
O554       Ni570   1.898       .  S
O554        C560   1.265   1_556  A
O555        C560   1.273       .  A
C556        C634   1.441       .  S
O557        C559   1.268       .  A
O558       Ni569   1.937       .  S
C559        C652   1.438       .  S
C559        O565   1.273       .  A
C560        C637   1.430       .  S
H561        O562   0.966       .  S
O562       Ni570   1.916       .  S
O562       Ni564   1.917       .  S
O562       Ni569   1.929       .  S
O563       Ni564   1.943       .  S
Ni564       O568   1.904       .  S
Ni564       O566   1.896       .  S
O565       Ni570   1.940   1_554  S
C567        C635   1.441       .  S
C567        O568   1.265   1_554  A
C572        C573   1.397       .  A
C572        C577   1.402       .  A
C572        C646   1.440       .  S
C573        C574   1.396       .  A
C573        H578   1.085       .  S
C574        C575   1.401       .  A
C574        C632   1.436       .  S
C575        C576   1.403       .  A
C575        H579   1.084       .  S
C576        C577   1.405       .  A
C576        C629   1.443       .  S
C577        H580   1.079       .  S
C581        C586   1.397       .  A
C581        C659   1.438       .  S
C582        C583   1.405       .  A
C582        H587   1.079       .  S
C583        C584   1.404       .  A
C583        C633   1.445       .  S
C584        H588   1.084       .  S
C585        C586   1.397       .  A
C585        C627   1.437       .  S
C586        H589   1.085       .  S
C590        C591   1.404       .  A
C590        C595   1.400       .  A
C590        C661   1.445   1_565  S
C591        C592   1.405       .  A
C591        H596   1.078       .  S
C592        C593   1.403       .  A
C592        C636   1.445       .  S
C593        C594   1.401       .  A
C593        H597   1.084       .  S
C594        C595   1.399       .  A
C594        C626   1.440       .  S
C595        H598   1.085   1_565  S
O599        C620   1.270   1_455  A
O600       Ni623   1.905       .  S
O600        C609   1.265       .  A
O601       Ni605   1.928   1_556  S
O601       Ni623   1.917   1_545  S
O601       Ni617   1.916   1_445  S
C602        C628   1.433       .  S
C602        O619   1.265       .  A
C602        O611   1.273       .  A
O603       Ni622   1.935       .  S
O603        C609   1.270   1_655  A
O604        C606   1.270       .  A
Ni605       O608   1.936   1_545  S
Ni605       O610   1.907   1_545  S
C606        C670   1.437       .  S
C606        O616   1.275       .  A
O607       Ni623   1.902       .  S
O607        C613   1.265   1_556  A
O608        C613   1.271       .  A
C609        C630   1.439       .  S
O610        C612   1.270       .  A
O611       Ni622   1.934       .  S
C612        C654   1.438       .  S
C612        O618   1.276       .  A
C613        C625   1.435       .  S
H614        O615   0.966       .  S
O615       Ni623   1.909   1_655  S
O615       Ni617   1.914       .  S
O615       Ni622   1.927       .  S
Ni617       O619   1.899       .  S
O618       Ni623   1.944   1_554  S
C620        C640   1.438       .  S
C620        O621   1.265   1_554  A
C625        C626   1.206       .  T
C627        C628   1.205       .  T
C629        C630   1.208       .  T
C631        C632   1.203       .  T
C633        C634   1.209       .  T
C635        C636   1.209       .  T
C637        C638   1.203       .  T
C639        C640   1.207       .  T
C641        C642   1.206       .  T
C643        C644   1.205       .  T
C645        C646   1.206       .  T
C647        C648   1.206       .  T
C649        C650   1.204       .  T
C653        C654   1.208       .  T
C655        C656   1.211       .  T
C657        C658   1.206       .  T
C659        C660   1.205       .  T
C663        C664   1.207       .  T
C665        C666   1.209       .  T
C667        C668   1.206       .  T
C669        C670   1.207       .  T
C671        C672   1.212       .  T
