geometry optimzed in LAMMPS
_audit_creation_date              2020-11-30 
_audit_creation_method            'lammps2cif' 
_symmetry_space_group_name_H-M    'P1' 
_symmetry_Int_Tables_number       1 
_symmetry_cell_setting            triclinic 
loop_ 
_symmetry_equiv_pos_as_xyz 
  x,y,z 
_cell_length_a                    45.95984226 
_cell_length_b                    45.6887802490109 
_cell_length_c                    46.05515827965132 
_cell_angle_alpha                 90.19577768556958 
_cell_angle_beta                  89.90348993392118 
_cell_angle_gamma                 89.99087829091991 
loop_ 
_atom_site_label 
_atom_site_type_symbol 
_atom_site_fract_x 
_atom_site_fract_y 
_atom_site_fract_z 
_atom_site_charge 
C1          C  0.51363233  0.39442192  0.06968054     0.43100
N2          N  0.49971419  0.42134057  0.03404630     0.02000
C3          C  0.58492860  0.51406262  0.94992632    -0.05800
H4          H  0.58478728  0.54107649  0.05909856     0.07500
C5          C  0.47290905  0.55790736  0.05302376    -0.06200
Co6        Co  0.54998739  0.44986176  0.00372211     0.74200
N7          N  0.56570267  0.50551576  0.03460729    -0.25400
Co8        Co  0.54108564  0.52540263  0.00181943     0.74100
C9          C  0.49691383  0.57302868  0.06746929     0.43300
N10         N  0.44495023  0.49038818  0.03186249     0.01700
N11         N  0.51384523  0.54593455  0.03281240     0.01800
N12         N  0.58993194  0.46498387  0.95273464    -0.46200
H13         H  0.56172052  0.40665190  0.06220652     0.07500
N14         N  0.56902998  0.47679071  0.03569459     0.02000
N15         N  0.51595432  0.54456690  0.96889888     0.01800
C16         C  0.50160085  0.57206137  0.93385436     0.43400
N17         N  0.44837063  0.46170135  0.03205697    -0.24800
C18         C  0.54233019  0.40827053  0.94996838    -0.05700
N19         N  0.49017008  0.40301904  0.05420768    -0.45900
N20         N  0.52530742  0.56300239  0.94867677    -0.46200
C21         C  0.51779123  0.39485381  0.93487909     0.43200
N22         N  0.57094229  0.47492254  0.97211445     0.02000
N23         N  0.45018383  0.46086680  0.96865826    -0.24800
N24         N  0.52819767  0.42505428  0.03503832    -0.25300
N25         N  0.44682932  0.48955689  0.96806355     0.01700
H26         H  0.43091940  0.42574877  0.94380848     0.07600
H27         H  0.45352915  0.56072278  0.94242477     0.07600
N28         N  0.56764490  0.50362790  0.97114046    -0.25400
N29         N  0.48538930  0.54193271  0.03194008    -0.25000
N30         N  0.50171685  0.42075195  0.97038391     0.02000
C31         C  0.59620407  0.49334816  0.07007902     0.43400
C32         C  0.43138651  0.45036699  0.05297324    -0.06300
N33         N  0.48736582  0.54129613  0.96859334    -0.25000
H34         H  0.44979229  0.55918835  0.05724923     0.07600
N35         N  0.58741767  0.46862673  0.05639091    -0.46200
H36         H  0.42878976  0.42727850  0.05735329     0.07600
C37         C  0.41928429  0.47371098  0.93356843     0.43300
C38         C  0.53892690  0.40896571  0.05689452    -0.05700
Co39       Co  0.47474387  0.44071161  0.00126595     0.73800
N40         N  0.42607787  0.49946939  0.05182618    -0.45900
C41         C  0.59978602  0.48827942  0.93766750     0.43500
N42         N  0.49335950  0.40320429  0.94895417    -0.45900
Co43       Co  0.46576322  0.51609957  0.00008508     0.73900
C44         C  0.47638390  0.55796200  0.94725355    -0.06300
C45         C  0.58210724  0.51783803  0.05546082    -0.05800
N46         N  0.53026304  0.42405510  0.97151323    -0.25300
N47         N  0.52164596  0.56446942  0.05371581    -0.46100
H48         H  0.58742957  0.53690263  0.94437288     0.07500
C49         C  0.43373606  0.44894475  0.94761414    -0.06200
Cl50       Cl  0.50791239  0.48304867  0.00173810    -0.49200
C51         C  0.41663551  0.47550013  0.06634886     0.43300
H52         H  0.56537107  0.40606585  0.94580586     0.07500
N53         N  0.42836415  0.49808680  0.94766561    -0.45900
C54         C  0.24226856  0.48678531  0.20069097     0.03800
C55         C  0.23632661  0.48316302  0.23066664    -0.12300
C56         C  0.21103653  0.49564975  0.24310513     0.01300
C57         C  0.19233570  0.51207932  0.22549023    -0.10900
C58         C  0.19729585  0.51517644  0.19567489     0.03800
C59         C  0.22203161  0.50188755  0.18338807    -0.10300
H60         H  0.25151409  0.47135357  0.24423808     0.09400
H61         H  0.17359829  0.52265893  0.23525860     0.06900
H62         H  0.22623515  0.50430680  0.16036244     0.06800
C63         C  0.76548034  0.51527611  0.20797102     0.03800
C64         C  0.78346419  0.53176795  0.18969874    -0.12300
C65         C  0.81188270  0.53909924  0.19772792     0.01300
C66         C  0.82196191  0.53079407  0.22517376    -0.10900
C67         C  0.80388343  0.51596395  0.24481369     0.03800
C68         C  0.77558455  0.50749208  0.23594267    -0.10300
H69         H  0.77526511  0.53864153  0.16873556     0.09400
H70         H  0.84406340  0.53607946  0.23149472     0.06900
H71         H  0.76161151  0.49546152  0.25061015     0.06800
C72         C  0.20545449  0.48377454  0.76738626     0.03800
C73         C  0.18880113  0.50050308  0.78690615    -0.12300
C74         C  0.20078249  0.51114345  0.81280933     0.01300
C75         C  0.22993181  0.50518006  0.81910416    -0.10900
C76         C  0.24674919  0.48751656  0.80066570     0.03800
C77         C  0.23459138  0.47691448  0.77450625    -0.10300
H78         H  0.16621279  0.50511975  0.78193719     0.09400
H79         H  0.23932205  0.51336255  0.83913626     0.06900
H80         H  0.24744046  0.46323746  0.76014313     0.06800
C81         C  0.80392148  0.50704111  0.76053275     0.03800
C82         C  0.82124122  0.52562437  0.77752795    -0.12300
C83         C  0.81433636  0.53120149  0.80664171     0.01300
C84         C  0.78896337  0.51902811  0.81837262    -0.10900
C85         C  0.77069487  0.50103834  0.80158897     0.03800
C86         C  0.77845859  0.49473807  0.77253557    -0.10300
H87         H  0.84087620  0.53492765  0.76829201     0.09400
H88         H  0.78355606  0.52324235  0.84092585     0.06900
H89         H  0.76506713  0.48025406  0.75955590     0.06800
N90         N  0.00874216  0.61611423  0.96061299    -0.35900
N91         N  0.96333260  0.62590951  0.00411378    -0.56500
N92         N  0.00875118  0.62649828  0.04887486    -0.35900
N93         N  0.05451261  0.62130620  0.00498054    -0.56500
C94         C  0.98529514  0.61879249  0.94311767     0.27700
C95         C  0.03276871  0.61641927  0.94368509     0.27700
C96         C  0.98506302  0.63232707  0.06526295     0.27700
C97         C  0.03245270  0.62933437  0.06596209     0.27700
C98         C  0.94633806  0.61886576  0.98117851     0.36300
C99         C  0.94639483  0.62332645  0.02801026     0.36300
C100        C  0.07074523  0.61162790  0.98233842     0.36300
C101        C  0.07076248  0.61715684  0.02912132     0.36300
C102        C  0.99462050  0.62084586  0.91451709    -0.21200
C103        C  0.02454242  0.61962371  0.91490957    -0.21200
C104        C  0.99380575  0.63966471  0.09314963    -0.21200
C105        C  0.02368614  0.63754250  0.09366498    -0.21200
C106        C  0.91819946  0.61317678  0.99046165    -0.22300
C107        C  0.91834516  0.61550836  0.02005129    -0.22300
C108        C  0.09771203  0.60229785  0.99211600    -0.22300
C109        C  0.09788007  0.60620947  0.02155248    -0.22300
C110        C  0.95581086  0.61645689  0.95197276    -0.17600
C111        C  0.06151381  0.61019799  0.95298007    -0.17600
C112        C  0.06108923  0.62087260  0.05821085    -0.17600
C113        C  0.95586648  0.62687521  0.05707568    -0.17600
H114        H  0.98133351  0.62218799  0.89521154     0.15300
H115        H  0.03861425  0.61979501  0.89604112     0.15300
H116        H  0.97995671  0.64449427  0.11158678     0.15300
H117        H  0.03718515  0.64050660  0.11264851     0.15300
H118        H  0.89958418  0.60709230  0.97741908     0.13600
H119        H  0.89986251  0.61138685  0.03401518     0.13600
H120        H  0.11532485  0.59291973  0.97956113     0.13600
H121        H  0.11563786  0.60051839  0.03587062     0.13600
H122        H  0.00829344  0.61147669  0.98269410     0.26800
H123        H  0.00851415  0.61777740  0.02801310     0.26800
C124        C  0.07902190  0.48685016  0.41632626     0.43100
N125        N  0.04147152  0.47473037  0.44160321     0.02000
C126        C  0.95929771  0.56401094  0.53187038    -0.05800
H127        H  0.07062041  0.55986850  0.55744745     0.07500
C128        C  0.05577910  0.45086637  0.58013139    -0.06200
Co129      Co  0.01245290  0.52715216  0.46824546     0.74200
N130        N  0.04396391  0.54251930  0.52299992    -0.25400
Co131      Co  0.00987118  0.52025792  0.54346761     0.74100
C132        C  0.07100218  0.47492771  0.59462169     0.43300
N133        N  0.03536590  0.42236974  0.51215745     0.01700
N134        N  0.03901235  0.49243769  0.56515198     0.01800
N135        N  0.96142144  0.56852363  0.48303077    -0.46200
H136        H  0.07268510  0.53565314  0.42689981     0.07500
N137        N  0.04478845  0.54543447  0.49450251     0.02000
N138        N  0.97539376  0.49768659  0.56288766     0.01800
C139        C  0.93786230  0.48702237  0.58889224     0.43400
N140        N  0.03634052  0.42501732  0.48360823    -0.24800
C141        C  0.96103405  0.52117915  0.42454409    -0.05700
N142        N  0.06207221  0.46398697  0.42429217    -0.45900
N143        N  0.95504500  0.50921073  0.57985255    -0.46200
C144        C  0.94576857  0.49711946  0.41039306     0.43200
N145        N  0.98125975  0.54983341  0.49273296     0.02000
N146        N  0.97257098  0.42909872  0.48165704    -0.24800
N147        N  0.04345199  0.50341965  0.44472717    -0.25300
N148        N  0.97157604  0.42691092  0.51024152     0.01700
H149        H  0.94640059  0.40987666  0.44759660     0.07600
H150        H  0.94307613  0.43774150  0.57884616     0.07600
N151        N  0.98055969  0.54700996  0.52125185    -0.25400
N152        N  0.03646264  0.46378077  0.56246582    -0.25000
N153        N  0.97768488  0.47950974  0.43956707     0.02000
C154        C  0.08103361  0.57105042  0.50967507     0.43400
C155        C  0.05848404  0.40879800  0.47344899    -0.06300
N156        N  0.97300155  0.46901163  0.56028422    -0.25000
H157        H  0.05782363  0.42754251  0.58349355     0.07600
N158        N  0.06641656  0.56244579  0.48568367    -0.46200
H159        H  0.06459634  0.40656775  0.45086705     0.07600
C160        C  0.93537210  0.40070950  0.49564897     0.43300
C161        C  0.06642451  0.51302244  0.42947288    -0.05700
Co162      Co  0.00689721  0.45160537  0.46111567     0.73800
N163        N  0.05609874  0.40496646  0.52233423    -0.45900
C164        C  0.94667012  0.57841644  0.50656578     0.43500
N165        N  0.95726100  0.47190829  0.42060234    -0.45900
Co166      Co  0.00401881  0.44503277  0.53655397     0.73900
C167        C  0.94988492  0.46020010  0.57595752    -0.06300
C168        C  0.06617244  0.55765594  0.53449743    -0.05800
N169        N  0.98027084  0.50821097  0.44223201    -0.25300
N170        N  0.05915981  0.50003412  0.58440262    -0.46100
H171        H  0.95363038  0.56620555  0.55456943     0.07500
C172        C  0.95045095  0.41333229  0.47047570    -0.06200
Cl173      Cl  0.00829760  0.48600124  0.50233436    -0.49200
C174        C  0.07170993  0.39564903  0.49915029     0.43300
H175        H  0.95872722  0.54449639  0.42132883     0.07500
N176        N  0.94995582  0.41009678  0.51936676    -0.45900
C177        C  0.47363943  0.77343808  0.25273141     0.03800
C178        C  0.48154576  0.74598525  0.24081939    -0.12300
C179        C  0.47641032  0.74011655  0.21109103     0.01300
C180        C  0.46439382  0.76207216  0.19361295    -0.10900
C181        C  0.45601737  0.78912867  0.20540132     0.03800
C182        C  0.46011923  0.79428677  0.23505934    -0.10300
H183        H  0.49192566  0.72968472  0.25431094     0.09400
H184        H  0.46153548  0.75799065  0.17058854     0.06900
H185        H  0.45368143  0.81515357  0.24434158     0.06800
C186        C  0.49574655  0.22887696  0.21146959     0.03800
C187        C  0.48238875  0.20900138  0.19256941    -0.12300
C188        C  0.47646928  0.18032590  0.20121318     0.01300
C189        C  0.48284012  0.17186975  0.22967842    -0.10900
C190        C  0.49505856  0.19176615  0.24949018     0.03800
C191        C  0.50206306  0.22036039  0.24020831    -0.10300
H192        H  0.47721575  0.21576010  0.17061904     0.09400
H193        H  0.47855230  0.14957240  0.23644000     0.06900
H194        H  0.51214637  0.23569541  0.25507747     0.06800
C195        C  0.50164273  0.19139503  0.75669693     0.03800
C196        C  0.48903358  0.17249678  0.77707167    -0.12300
C197        C  0.48287004  0.18203752  0.80535626     0.01300
C198        C  0.48995195  0.21064443  0.81342014    -0.10900
C199        C  0.50330893  0.22970972  0.79373562     0.03800
C200        C  0.50913720  0.22016072  0.76511632    -0.10300
H201        H  0.48365607  0.15026856  0.77072568     0.09400
H202        H  0.48478764  0.21830269  0.83514016     0.06900
H203        H  0.51905741  0.23490712  0.74963366     0.06800
C204        C  0.47815240  0.77457407  0.75257206     0.03800
C205        C  0.48863078  0.74887018  0.76597352    -0.12300
C206        C  0.48037489  0.74236858  0.79481910     0.01300
C207        C  0.46329604  0.76250684  0.81031823    -0.10900
C208        C  0.45203481  0.78767046  0.79694307     0.03800
C209        C  0.45856498  0.79262439  0.76762131    -0.10300
H210        H  0.50321136  0.73438424  0.75430101     0.09400
H211        H  0.45880326  0.75841259  0.83305114     0.06900
H212        H  0.44968095  0.81161844  0.75674811     0.06800
N213        N  0.39733908  0.02876447  0.99829275    -0.35900
N214        N  0.39127092  0.98525311  0.04409774    -0.56500
N215        N  0.38084343  0.93938502  0.00153325    -0.35900
N216        N  0.38971743  0.98277198  0.95552161    -0.56500
C217        C  0.40892997  0.04308507  0.02124550     0.27700
C218        C  0.40762726  0.04188788  0.97410272     0.27700
C219        C  0.38475171  0.92291261  0.02563759     0.27700
C220        C  0.38390279  0.92146581  0.97826187     0.27700
C221        C  0.39206316  0.00986186  0.06034062     0.36300
C222        C  0.38446122  0.96322160  0.06232933     0.36300
C223        C  0.38983090  0.00615652  0.93762182     0.36300
C224        C  0.38249577  0.95937393  0.93908961     0.36300
C225        C  0.42641248  0.06578990  0.01157800    -0.21200
C226        C  0.42556726  0.06506138  0.98179048    -0.26600
C227        C  0.38872300  0.89390852  0.01756634    -0.21200
C228        C  0.38818583  0.89299370  0.98774234    -0.21200
C229        C  0.38534127  0.00357032  0.08897430    -0.22300
C230        C  0.38106001  0.97396136  0.09034667    -0.22300
C231        C  0.38235615  0.99770042  0.90973230    -0.22300
C232        C  0.37819922  0.96800382  0.91053471    -0.22300
C233        C  0.40343063  0.03679320  0.05071237    -0.17600
C234        C  0.40066966  0.03402864  0.94525671    -0.17600
C235        C  0.38337347  0.92999458  0.94865878    -0.17600
C236        C  0.38548239  0.93327837  0.05473722    -0.17600
H237        H  0.43860045  0.08123803  0.02462929     0.15300
H238        H  0.43704752  0.07981352  0.96743573     0.15300
H239        H  0.39207700  0.87531903  0.03167398     0.15300
H240        H  0.39106047  0.87355205  0.97455716     0.15300
H241        H  0.38520730  0.01849544  0.10727842     0.13600
H242        H  0.37688014  0.96182570  0.11001132     0.13600
H243        H  0.38150196  0.01125557  0.89052348     0.13600
H244        H  0.37334750  0.95435048  0.89194559     0.13600
H245        H  0.38222483  0.01186740  0.99912746     0.26800
H246        H  0.37646652  0.96160633  0.00090037     0.26800
C247        C  0.21226879  0.74352008  0.52052035     0.03800
C248        C  0.23816069  0.75531430  0.50935350    -0.12300
C249        C  0.24472775  0.78496744  0.51424182     0.01300
C250        C  0.22468858  0.80271462  0.52910642    -0.10900
C251        C  0.19941404  0.79086263  0.54148166     0.03800
C252        C  0.19379612  0.76096132  0.53756163    -0.10300
H253        H  0.25288175  0.74167476  0.49685632     0.09400
H254        H  0.22927211  0.82584723  0.53163781     0.06900
H255        H  0.17454756  0.75122297  0.54711403     0.06800
C256        C  0.75937218  0.19577317  0.52553661     0.03800
C257        C  0.76663024  0.22482426  0.51813157    -0.12300
C258        C  0.79265705  0.23735048  0.52870329     0.01300
C259        C  0.81036231  0.22102135  0.54746611    -0.10900
C260        C  0.80467926  0.19135064  0.55292850     0.03800
C261        C  0.77905369  0.17902433  0.54173156    -0.10300
H262        H  0.75241332  0.23737630  0.50417867     0.09400
H263        H  0.82979796  0.23106178  0.55630508     0.06900
H264        H  0.77432150  0.15609502  0.54539299     0.06800
C265        C  0.21462155  0.23359220  0.50588382     0.03800
C266        C  0.19375715  0.21517869  0.51854861    -0.12300
C267        C  0.20132048  0.18730042  0.52859109     0.01300
C268        C  0.22995234  0.17751928  0.52483118    -0.10900
C269        C  0.25063515  0.19467740  0.51040574     0.03800
C270        C  0.24318967  0.22318663  0.50137594    -0.10300
H271        H  0.17158000  0.22289546  0.52102116     0.09400
H272        H  0.23612092  0.15602803  0.53262071     0.06900
H273        H  0.25924290  0.23692671  0.49089246     0.06800
C274        C  0.76684845  0.77966907  0.53414785     0.03800
C275        C  0.78329253  0.79677649  0.55337123    -0.12300
C276        C  0.81226913  0.78964590  0.55967583     0.01300
C277        C  0.82406396  0.76380401  0.54806621    -0.10900
C278        C  0.80738573  0.74538630  0.53016366     0.03800
C279        C  0.77878850  0.75362851  0.52277887    -0.10300
H280        H  0.77395174  0.81672896  0.56215004     0.09400
H281        H  0.84652368  0.75817051  0.55253136     0.06900
H282        H  0.76621264  0.74026431  0.50793113     0.06800
N283        N  0.96159144  0.99054241  0.63370081    -0.35900
N284        N  0.00479483  0.03661727  0.62521977    -0.56500
N285        N  0.05203342  0.99373831  0.62789427    -0.35900
N286        N  0.00866263  0.94739588  0.63363341    -0.56500
C287        C  0.94407348  0.01305256  0.62595514     0.27700
C288        C  0.94618001  0.96551831  0.63011895     0.27700
C289        C  0.06666687  0.01751001  0.61813713     0.27700
C290        C  0.06869773  0.96995722  0.62207842     0.27700
C291        C  0.98073781  0.05345537  0.62779471     0.36300
C292        C  0.02779684  0.05504185  0.62544156     0.36300
C293        C  0.98600356  0.92941604  0.63916612     0.36300
C294        C  0.03295348  0.93083357  0.63532468     0.36300
C295        C  0.91684224  0.00222985  0.61863059    -0.21200
C296        C  0.91825872  0.97232334  0.62095231    -0.21200
C297        C  0.09335297  0.00881159  0.60696665    -0.21200
C298        C  0.09477695  0.97897265  0.60975112    -0.21200
C299        C  0.98857108  0.08273096  0.62951911    -0.22300
C300        C  0.01834750  0.08369104  0.62838937    -0.22300
C301        C  0.99593909  0.90137169  0.64474040    -0.22300
C302        C  0.02558651  0.90216484  0.64194489    -0.22300
C303        C  0.95182572  0.04312166  0.62519963    -0.17600
C304        C  0.95646113  0.93661455  0.63462377    -0.17600
C305        C  0.06108675  0.94023747  0.62705125    -0.17600
C306        C  0.05675830  0.04690877  0.61888568    -0.17600
H307        H  0.89791445  0.01449917  0.61184765     0.15300
H308        H  0.90067960  0.95732161  0.61614978     0.15300
H309        H  0.11006616  0.02245372  0.59746288     0.15300
H310        H  0.11290719  0.96547276  0.60294732     0.15300
H311        H  0.97439250  0.10159544  0.63062258     0.13600
H312        H  0.03150051  0.10334268  0.62839620     0.13600
H313        H  0.98302809  0.88199647  0.64881320     0.13600
H314        H  0.03981797  0.88339858  0.64350985     0.13600
H315        H  0.98270597  0.99218621  0.64138382     0.26800
H316        H  0.03198032  0.99382103  0.63819929     0.26800
C317        C  0.50532162  0.91384337  0.41594719     0.43100
N318        N  0.49484577  0.95218562  0.44076157     0.02000
C319        C  0.58461848  0.03394453  0.53047391    -0.05800
H320        H  0.58530419  0.92273560  0.55250131     0.07500
C321        C  0.47686265  0.92907215  0.57529903    -0.06200
Co322      Co  0.54746694  0.98155542  0.46601934     0.74200
N323        N  0.56556903  0.94877302  0.51896754    -0.25400
Co324      Co  0.54268573  0.98139989  0.54117241     0.74100
C325        C  0.50191843  0.91320541  0.58689472     0.43300
N326        N  0.44513257  0.95382925  0.51222090     0.01700
N327        N  0.51684033  0.94986123  0.56169138     0.01800
N328        N  0.58790917  0.03360116  0.48146712    -0.46200
H329        H  0.55442313  0.91950337  0.42438123     0.07500
N330        N  0.56778177  0.94858208  0.49038839     0.02000
N331        N  0.51924252  0.01443630  0.56252970     0.01800
C332        C  0.50709590  0.05118760  0.58903681     0.43400
N333        N  0.44654663  0.95407014  0.48361163    -0.24800
C334        C  0.53809243  0.03651319  0.42683140    -0.05700
N335        N  0.48320384  0.93102900  0.42485100    -0.45900
N336        N  0.53003317  0.03538189  0.57938794    -0.46200
C337        C  0.51309233  0.05250080  0.41558850     0.43200
N338        N  0.56999000  0.01288227  0.49093950     0.02000
N339        N  0.44889625  0.01797706  0.48415998    -0.24800
N340        N  0.52349508  0.95033390  0.44247263    -0.25300
N341        N  0.44689367  0.01781351  0.51276467     0.01700
H342        H  0.42850187  0.04428303  0.45108859     0.07600
H343        H  0.45835924  0.04388160  0.58014842     0.07600
N344        N  0.56782430  0.01261660  0.51954146    -0.25400
N345        N  0.48820501  0.95131594  0.56005300    -0.25000
N346        N  0.49794064  0.01643442  0.44122968     0.02000
C347        C  0.59569286  0.91346017  0.50440544     0.43400
C348        C  0.42930103  0.93272087  0.47328943    -0.06300
N349        N  0.49059048  0.01545782  0.56081302    -0.25000
H350        H  0.45391374  0.92471914  0.57819745     0.07600
N351        N  0.58589035  0.92801079  0.48076651    -0.46200
H352        H  0.42537568  0.92804093  0.45060009     0.07600
C353        C  0.41920029  0.05338478  0.49944368     0.43300
C354        C  0.53218117  0.92667222  0.42727931    -0.05700
Co355      Co  0.47175290  0.98528564  0.46189266     0.73800
N356        N  0.42755618  0.93332191  0.52234833    -0.45900
C357        C  0.59801892  0.04785535  0.50524789     0.43500
N358        N  0.48893596  0.03858689  0.42499173    -0.45900
Co359      Co  0.46731292  0.98467445  0.53691075     0.73900
C360        C  0.48091104  0.03790922  0.57694315    -0.06300
C361        C  0.58204001  0.92719350  0.52969039    -0.05800
N362        N  0.52660984  0.01470608  0.44261692    -0.25300
N363        N  0.52596074  0.92751914  0.57766767    -0.46100
H364        H  0.58744370  0.03877083  0.55329900     0.07500
C365        C  0.43228077  0.03973520  0.47380049    -0.06200
Cl366      Cl  0.50732319  0.98328459  0.50148664    -0.49200
C367        C  0.41685749  0.91889122  0.49911574     0.43300
H368        H  0.56103892  0.04047633  0.42344336     0.07500
N369        N  0.42904515  0.03838273  0.52276835    -0.45900
C370        C  0.68923611  0.80842272  0.53586314    -0.04800
C371        C  0.68942986  0.82723808  0.51156480     0.09400
C372        C  0.71346357  0.82665780  0.49239679    -0.02200
C373        C  0.73762868  0.80847060  0.49827800    -0.00400
C374        C  0.73850516  0.79173396  0.52401271    -0.04000
C375        C  0.71397724  0.79135234  0.54249973     0.03000
C376        C  0.66593310  0.84994616  0.50827030     0.09800
C377        C  0.71409166  0.84608790  0.46758834     0.35700
C378        C  0.71483200  0.77455301  0.56913482     0.39200
C379        C  0.66628886  0.87505645  0.52620854    -0.04400
C380        C  0.64394454  0.89616315  0.52427553     0.02800
C381        C  0.62054560  0.89223054  0.50462815    -0.04000
C382        C  0.62081174  0.86760384  0.48587161    -0.00200
C383        C  0.64334911  0.84650518  0.48779026    -0.02800
C384        C  0.68979319  0.87911823  0.54685514     0.36500
C385        C  0.59754894  0.86349497  0.46505197     0.40100
C386        C  0.64586410  0.92250415  0.54186090     0.39200
C387        C  0.64305725  0.82089822  0.46912378     0.36100
C388        C  0.66388301  0.80755066  0.55461938     0.36800
C389        C  0.76242291  0.80824389  0.47873841     0.40100
N390        N  0.64750994  0.94351635  0.55587270    -0.38000
N391        N  0.70848040  0.88222026  0.56339232    -0.39600
N392        N  0.57912502  0.86014828  0.44827675    -0.37300
N393        N  0.64292027  0.80043756  0.45424218    -0.39700
N394        N  0.71470269  0.86169596  0.44785987    -0.39500
N395        N  0.78224513  0.80784176  0.46321050    -0.37100
N396        N  0.71562929  0.76133435  0.59050840    -0.38200
N397        N  0.64353247  0.80686394  0.56943208    -0.39800
C398        C  0.85144788  0.85970323  0.58234853    -0.04800
C399        C  0.86986710  0.84945540  0.60452731     0.09400
C400        C  0.86748305  0.82024195  0.61400309    -0.02200
C401        C  0.84742415  0.80108350  0.60055316    -0.00400
C402        C  0.83101812  0.81056421  0.57628853    -0.04000
C403        C  0.83332180  0.84010413  0.56723370     0.03000
C404        C  0.89405413  0.86875937  0.61479807     0.09800
C405        C  0.88613905  0.80979186  0.63710857     0.35700
C406        C  0.81880032  0.85007369  0.54110371     0.39200
C407        C  0.89216101  0.88396638  0.64146740    -0.04400
C408        C  0.91337444  0.90511566  0.64877235     0.02800
C409        C  0.93583836  0.91187348  0.62892855    -0.04000
C410        C  0.93810374  0.89599977  0.60261565    -0.00200
C411        C  0.91771589  0.87406553  0.59595441    -0.02800
C412        C  0.86785805  0.87859316  0.66080836     0.36500
C413        C  0.96087691  0.90295554  0.58186126     0.40100
C414        C  0.91188036  0.92036218  0.67638171     0.39200
C415        C  0.92054256  0.85742673  0.56918188     0.36100
C416        C  0.85167220  0.89052268  0.57476244     0.36800
C417        C  0.84370027  0.77167959  0.61173833     0.40100
N418        N  0.91081067  0.93252505  0.69843973    -0.38000
N419        N  0.84841506  0.87431763  0.67621779    -0.39600
N420        N  0.97908592  0.90854012  0.56539985    -0.37300
N421        N  0.92272867  0.84411195  0.54786875    -0.39700
N422        N  0.90104435  0.80148124  0.65555631    -0.39500
N423        N  0.84067656  0.74822872  0.62067580    -0.37100
N424        N  0.80742662  0.85802748  0.52016256    -0.38200
N425        N  0.85170287  0.91517642  0.56908332    -0.39800
C426        C  0.32639641  0.16427417  0.52307321    -0.04800
C427        C  0.32767919  0.14234965  0.50139014     0.09400
C428        C  0.30562532  0.14098297  0.48013305    -0.02200
C429        C  0.28175960  0.16040908  0.48139775    -0.00400
C430        C  0.27941422  0.18096548  0.50427978    -0.04000
C431        C  0.30221353  0.18338948  0.52464002     0.03000
C432        C  0.35157388  0.11986789  0.50148923     0.09800
C433        C  0.30691304  0.11868327  0.45768470     0.35700
C434        C  0.30003575  0.20466307  0.54796789     0.39200
C435        C  0.34810592  0.09354072  0.51709125    -0.04400
C436        C  0.37002737  0.07179167  0.51631666     0.02800
C437        C  0.39586205  0.07628413  0.50012695    -0.04000
C438        C  0.39884096  0.10240533  0.48390610    -0.00200
C439        C  0.37691151  0.12411621  0.48475701    -0.02800
C440        C  0.32150754  0.08857199  0.53334236     0.36500
C441        C  0.42430046  0.10703492  0.46597612     0.40100
C442        C  0.36495157  0.04393347  0.53045956     0.39200
C443        C  0.38013505  0.15076748  0.46803138     0.36100
C444        C  0.34950039  0.16644249  0.54434330     0.36800
C445        C  0.25894867  0.15856738  0.45973933     0.40100
N446        N  0.36071311  0.02156841  0.54140837    -0.38000
N447        N  0.30020828  0.08467491  0.54619837    -0.39600
N448        N  0.44427661  0.11085779  0.45118220    -0.37300
N449        N  0.38258698  0.17202220  0.45465394    -0.39700
N450        N  0.30795232  0.10076490  0.43989307    -0.39500
N451        N  0.24078690  0.15720888  0.44241242    -0.37100
N452        N  0.29817203  0.22167489  0.56655286    -0.38200
N453        N  0.36797903  0.16817311  0.56129910    -0.39800
C454        C  0.09134265  0.10466030  0.57012134    -0.04800
C455        C  0.11737285  0.11079551  0.58513820     0.09400
C456        C  0.12273306  0.09739127  0.61219365    -0.02200
C457        C  0.10208253  0.07796852  0.62413903    -0.00400
C458        C  0.07698225  0.07028253  0.60815693    -0.04000
C459        C  0.07172569  0.08376156  0.58104019     0.03000
C460        C  0.13960042  0.13032358  0.57146033     0.09800
C461        C  0.14992626  0.10279763  0.62719765     0.35700
C462        C  0.04647546  0.07561197  0.56394335     0.39200
C463        C  0.14341572  0.15929178  0.58141556    -0.04400
C464        C  0.16330325  0.17807255  0.56735870     0.02800
C465        C  0.17936063  0.16802557  0.54295836    -0.04000
C466        C  0.17490205  0.13909809  0.53269966    -0.00200
C467        C  0.15554917  0.12024417  0.54721637    -0.02800
C468        C  0.12658134  0.16983526  0.60598405     0.36500
C469        C  0.18931168  0.12885924  0.50649933     0.40100
C470        C  0.16719791  0.20767247  0.57821564     0.39200
C471        C  0.15176042  0.09038297  0.53701239     0.36100
C472        C  0.08502065  0.11963803  0.54311183     0.36800
C473        C  0.10665949  0.06570458  0.65276408     0.40100
N474        N  0.17002772  0.23140060  0.58663431    -0.38000
N475        N  0.11319175  0.17819320  0.62563423    -0.39600
N476        N  0.20068984  0.12044995  0.48564892    -0.37300
N477        N  0.14861949  0.06661043  0.52885097    -0.39700
N478        N  0.17172255  0.10695807  0.63906145    -0.39500
N479        N  0.11015221  0.05601447  0.67567879    -0.37100
N480        N  0.02629824  0.06916984  0.55034908    -0.38200
N481        N  0.08010041  0.13169308  0.52161426    -0.39800
C482        C  0.70594728  0.14523962  0.48733487    -0.04800
C483        C  0.68411493  0.14234185  0.50881550     0.09400
C484        C  0.68472176  0.16105296  0.53331784    -0.02200
C485        C  0.70848235  0.18017093  0.53780115    -0.00400
C486        C  0.73123822  0.18175138  0.51718959    -0.04000
C487        C  0.72916167  0.16520790  0.49132404     0.03000
C488        C  0.66213981  0.11786729  0.50715487     0.09800
C489        C  0.66125701  0.15991204  0.55438235     0.35700
C490        C  0.75159500  0.16783696  0.46934922     0.39200
C491        C  0.66486811  0.09346233  0.52573881    -0.04400
C492        C  0.64423127  0.07053770  0.52488104     0.02800
C493        C  0.62053436  0.07158918  0.50526906    -0.04000
C494        C  0.61831414  0.09564322  0.48608934    -0.00200
C495        C  0.63886112  0.11873589  0.48719052    -0.02800
C496        C  0.68929876  0.09177308  0.54560390     0.36500
C497        C  0.59452012  0.09709385  0.46556089     0.40100
C498        C  0.64827711  0.04529030  0.54347337     0.39200
C499        C  0.63592381  0.14358946  0.46792456     0.36100
C500        C  0.70526576  0.12666709  0.46176023     0.36800
C501        C  0.71034850  0.19712990  0.56441527     0.40100
N502        N  0.65161604  0.02517432  0.55831083    -0.38000
N503        N  0.70876556  0.09051719  0.56145889    -0.39600
N504        N  0.57569494  0.09833759  0.44897829    -0.37300
N505        N  0.63370008  0.16335973  0.45244498    -0.39700
N506        N  0.64245545  0.15901950  0.57110365    -0.39500
N507        N  0.71200089  0.21055534  0.58570201    -0.37100
N508        N  0.76932517  0.16995345  0.45161627    -0.38200
N509        N  0.70461238  0.11186582  0.44133041    -0.39800
C510        C  0.83726347  0.13106750  0.60041206    -0.04800
C511        C  0.86671410  0.13143364  0.59162972     0.09400
C512        C  0.87636178  0.15337066  0.57237032    -0.02200
C513        C  0.85627008  0.17267911  0.55950630    -0.00400
C514        C  0.82658148  0.17240487  0.56814372    -0.04000
C515        C  0.81768888  0.15240065  0.58993744     0.03000
C516        C  0.88735700  0.10776685  0.60097253     0.09800
C517        C  0.90704509  0.15550377  0.56509786     0.35700
C518        C  0.78849199  0.15382629  0.60192305     0.39200
C519        C  0.89852681  0.08792581  0.58010110    -0.04400
C520        C  0.91961797  0.06708891  0.58804739     0.02800
C521        C  0.92884424  0.06493716  0.61721841    -0.04000
C522        C  0.91701225  0.08405238  0.63830807    -0.00200
C523        C  0.89667697  0.10569536  0.63015167    -0.02800
C524        C  0.88850525  0.08914632  0.55025080     0.36500
C525        C  0.92650423  0.08195173  0.66824170     0.40100
C526        C  0.93206358  0.04792505  0.56609286     0.39200
C527        C  0.88584285  0.12622732  0.65167094     0.36100
C528        C  0.82679041  0.10801558  0.61932678     0.36800
C529        C  0.86619106  0.19144550  0.53611487     0.40100
N530        N  0.94190967  0.03252057  0.54866239    -0.38000
N531        N  0.88065976  0.09030133  0.52641699    -0.39600
N532        N  0.93433631  0.08036313  0.69205177    -0.37300
N533        N  0.87707758  0.14250519  0.66889229    -0.39700
N534        N  0.93149509  0.15717155  0.55929043    -0.39500
N535        N  0.87412905  0.20642506  0.51749408    -0.37100
N536        N  0.76524837  0.15496440  0.61157651    -0.38200
N537        N  0.81843889  0.08953384  0.63430597    -0.39800
C538        C  0.32385293  0.80773960  0.51832144    -0.04800
C539        C  0.32357017  0.83302629  0.50086293     0.09400
C540        C  0.29873760  0.83968547  0.48419224    -0.02200
C541        C  0.27351663  0.82232804  0.48659530    -0.00400
C542        C  0.27305882  0.79809394  0.50558665    -0.04000
C543        C  0.29879221  0.79002130  0.52033638     0.03000
C544        C  0.34854014  0.85395919  0.50158792     0.09800
C545        C  0.29879245  0.86523031  0.46557574     0.35700
C546        C  0.29911180  0.76437910  0.53879344     0.39200
C547        C  0.37264149  0.84996808  0.48306804    -0.04400
C548        C  0.39514945  0.87098040  0.48240963     0.02800
C549        C  0.39378173  0.89603904  0.50053785    -0.04000
C550        C  0.37009123  0.89924000  0.52004559    -0.00200
C551        C  0.34752846  0.87834733  0.52039646    -0.02800
C552        C  0.37421531  0.82411399  0.46477449     0.36500
C553        C  0.36824691  0.92443029  0.53925127     0.40100
C554        C  0.42007377  0.86620078  0.46366515     0.39200
C555        C  0.32299445  0.88200514  0.53997909     0.36100
C556        C  0.34941074  0.80095828  0.53546409     0.36800
C557        C  0.24766042  0.82991886  0.47023356     0.40100
N558        N  0.43987802  0.86221617  0.44862595    -0.38000
N559        N  0.37546588  0.80336337  0.45034743    -0.39600
N560        N  0.36676437  0.94441349  0.55469986    -0.37300
N561        N  0.30340011  0.88486140  0.55555042    -0.39700
N562        N  0.29891366  0.88567310  0.45081008    -0.39500
N563        N  0.22697894  0.83599010  0.45728025    -0.37100
N564        N  0.29958785  0.74379931  0.55335847    -0.38200
N565        N  0.36976416  0.79570548  0.54925962    -0.39800
C566        C  0.11512963  0.87651179  0.62818815    -0.04800
C567        C  0.12138488  0.87339650  0.59824995     0.09400
C568        C  0.10806862  0.89247038  0.57813768    -0.02200
C569        C  0.08701511  0.91265249  0.58757043    -0.00400
C570        C  0.08223450  0.91716569  0.61755962    -0.04000
C571        C  0.09690873  0.89944738  0.63790718     0.03000
C572        C  0.14093554  0.84952245  0.58723304     0.09800
C573        C  0.11603982  0.89137743  0.54762576     0.35700
C574        C  0.09261224  0.90434383  0.66873570     0.39200
C575        C  0.12968185  0.82817233  0.56806384    -0.04400
C576        C  0.14862873  0.80961297  0.55251716     0.02800
C577        C  0.17892337  0.80994118  0.55838147    -0.04000
C578        C  0.18968081  0.82922744  0.58007589    -0.00200
C579        C  0.17098363  0.84967612  0.59353576    -0.02800
C580        C  0.09844854  0.82591210  0.56376275     0.36500
C581        C  0.22003557  0.82816911  0.58871043     0.40100
C582        C  0.13678869  0.79168437  0.52930215     0.39200
C583        C  0.18290089  0.87131442  0.61334378     0.36100
C584        C  0.12661225  0.85561171  0.64883484     0.36800
C585        C  0.06971534  0.92833638  0.56634184     0.40100
N586        N  0.12697689  0.77758198  0.51083665    -0.38000
N587        N  0.07355027  0.82425789  0.56041651    -0.39600
N588        N  0.24428658  0.82741539  0.59540563    -0.37300
N589        N  0.19246524  0.88839165  0.62930154    -0.39700
N590        N  0.12247868  0.89051781  0.52333345    -0.39500
N591        N  0.05567023  0.94062152  0.54948178    -0.37100
N592        N  0.08911996  0.90822678  0.69333929    -0.38200
N593        N  0.13569212  0.83883543  0.66526852    -0.39800
C594        C  0.48397439  0.86959531  0.65527498    -0.04800
C595        C  0.50058578  0.84389162  0.65124364     0.09400
C596        C  0.51802390  0.84102456  0.62610775    -0.02200
C597        C  0.51850048  0.86356037  0.60498105    -0.00400
C598        C  0.50168924  0.88926462  0.60899001    -0.04000
C599        C  0.48466198  0.89219614  0.63445626     0.03000
C600        C  0.49993807  0.82060285  0.67432443     0.09800
C601        C  0.53563057  0.81498909  0.62218374     0.35700
C602        C  0.46882682  0.91910370  0.64006867     0.39200
C603        C  0.47860926  0.79833213  0.67357023    -0.04400
C604        C  0.47331495  0.78090645  0.69841242     0.02800
C605        C  0.48934855  0.78559609  0.72414525    -0.04000
C606        C  0.51222902  0.80631066  0.72405498    -0.00200
C607        C  0.51762467  0.82355777  0.69919204    -0.02800
C608        C  0.46102380  0.79454102  0.64774131     0.36500
C609        C  0.52871098  0.81152120  0.75040577     0.40100
C610        C  0.45014663  0.75939935  0.69817339     0.39200
C611        C  0.54027088  0.84564913  0.69971695     0.36100
C612        C  0.46638549  0.87293735  0.68127654     0.36800
C613        C  0.53574855  0.85995615  0.57880200     0.40100
N614        N  0.43164486  0.74222264  0.69805698    -0.38000
N615        N  0.44703731  0.79157177  0.62706911    -0.39600
N616        N  0.54162671  0.81584451  0.77153923    -0.37300
N617        N  0.55832371  0.86330134  0.70002043    -0.39700
N618        N  0.54975874  0.79423243  0.61912074    -0.39500
N619        N  0.54945078  0.85702434  0.55787916    -0.37100
N620        N  0.45631785  0.94063676  0.64457064    -0.38200
N621        N  0.45243998  0.87552394  0.70207127    -0.39800
C622        C  0.42863507  0.85970184  0.83272435    -0.04800
C623        C  0.40976385  0.84934821  0.85454570     0.09400
C624        C  0.40131617  0.81969494  0.85451068    -0.02200
C625        C  0.41277686  0.80026040  0.83356510    -0.00400
C626        C  0.43510331  0.80962790  0.81441369    -0.04000
C627        C  0.44253887  0.83982493  0.81381424     0.03000
C628        C  0.40208969  0.86886717  0.87955579     0.09800
C629        C  0.38198394  0.80886143  0.87696415     0.35700
C630        C  0.46588814  0.85058331  0.79548058     0.39200
C631        C  0.37330758  0.87886656  0.88385647    -0.04400
C632        C  0.36668842  0.89714446  0.90772404     0.02800
C633        C  0.38914927  0.90719340  0.92606568    -0.04000
C634        C  0.41793878  0.89724749  0.92169965    -0.00200
C635        C  0.42419771  0.87747903  0.89909472    -0.02800
C636        C  0.35077302  0.87117156  0.86322385     0.36500
C637        C  0.44126602  0.90772905  0.94024844     0.40100
C638        C  0.33694625  0.90623059  0.91315204     0.39200
C639        C  0.45354156  0.86612894  0.89575560     0.36100
C640        C  0.43470796  0.89082651  0.83066094     0.36800
C641        C  0.40157911  0.77060679  0.83192936     0.40100
N642        N  0.31324695  0.91351958  0.91765800    -0.38000
N643        N  0.33278734  0.86514489  0.84669840    -0.39600
N644        N  0.45985262  0.91604573  0.95505581    -0.37300
N645        N  0.47689548  0.85705981  0.89294733    -0.39700
N646        N  0.36664619  0.80034120  0.89500671    -0.39500
N647        N  0.39257561  0.74698259  0.83065137    -0.37100
N648        N  0.48442407  0.85953870  0.78097522    -0.38200
N649        N  0.43942465  0.91564081  0.82891439    -0.39800
C650        C  0.48480246  0.15917299  0.68261284    -0.04800
C651        C  0.51038480  0.14286374  0.67723418     0.09400
C652        C  0.53475570  0.14682494  0.69547025    -0.02200
C653        C  0.53288080  0.16540386  0.72002068    -0.00400
C654        C  0.50650504  0.17974799  0.72678324    -0.04000
C655        C  0.48280538  0.17740570  0.70738649     0.03000
C656        C  0.51040481  0.11920104  0.65446599     0.09800
C657        C  0.56114456  0.13032263  0.68996650     0.35700
C658        C  0.45588643  0.19275529  0.71364935     0.39200
C659        C  0.52477060  0.12306196  0.62760254    -0.04400
C660        C  0.52443841  0.10048511  0.60648376     0.02800
C661        C  0.50861965  0.07447538  0.61160368    -0.04000
C662        C  0.49414462  0.07071998  0.63842171    -0.00200
C663        C  0.49579262  0.09259609  0.66003634    -0.02800
C664        C  0.53968840  0.15034175  0.62166925     0.36500
C665        C  0.47800193  0.04404339  0.64410716     0.40100
C666        C  0.53978861  0.10428088  0.57919854     0.39200
C667        C  0.48312871  0.08742395  0.68844102     0.36100
C668        C  0.46005706  0.15602572  0.66333050     0.36800
C669        C  0.55758019  0.16853888  0.73930445     0.40100
N670        N  0.55210351  0.10719000  0.55745382    -0.38000
N671        N  0.55158980  0.17213441  0.61694255    -0.39600
N672        N  0.46496510  0.02284519  0.64852836    -0.37300
N673        N  0.47333939  0.08322896  0.71121617    -0.39700
N674        N  0.58213228  0.11704383  0.68550188    -0.39500
N675        N  0.57726969  0.17117365  0.75471794    -0.37100
N676        N  0.43437664  0.20500886  0.71852168    -0.38200
N677        N  0.44035909  0.15335993  0.64792244    -0.39800
C678        C  0.46720044  0.13590776  0.87245364    -0.04800
C679        C  0.44149695  0.12140579  0.86388872     0.09400
C680        C  0.42836782  0.12828162  0.83714818    -0.02200
C681        C  0.44100682  0.14946000  0.81893554    -0.00400
C682        C  0.46808893  0.16217891  0.82626688    -0.04000
C683        C  0.48096743  0.15560282  0.85338338     0.03000
C684        C  0.42901733  0.09804061  0.88272434     0.09800
C685        C  0.40221414  0.11306320  0.82807837     0.35700
C686        C  0.50868702  0.16842747  0.86149278     0.39200
C687        C  0.40464681  0.10387954  0.90046820    -0.04400
C688        C  0.39424965  0.08227565  0.91963947     0.02800
C689        C  0.40872684  0.05505480  0.92173884    -0.04000
C690        C  0.43275010  0.04906196  0.90342550    -0.00200
C691        C  0.44259253  0.07037647  0.88373525    -0.02800
C692        C  0.39103986  0.13251437  0.89975675     0.36500
C693        C  0.44801989  0.02134848  0.90551780     0.40100
C694        C  0.36907091  0.08825313  0.93774500     0.39200
C695        C  0.46726949  0.06421172  0.86498650     0.36100
C696        C  0.47946812  0.13033772  0.90092724     0.36800
C697        C  0.42555023  0.15898614  0.79320383     0.40100
N698        N  0.34900495  0.09302841  0.95221911    -0.38000
N699        N  0.38031473  0.15542478  0.89920497    -0.39600
N700        N  0.46004688  0.99915367  0.90706906    -0.37300
N701        N  0.48699985  0.05944190  0.85006006    -0.39700
N702        N  0.38145999  0.10080613  0.82069548    -0.39500
N703        N  0.41306927  0.16687512  0.77288423    -0.37100
N704        N  0.53074420  0.17867667  0.86809932    -0.38200
N705        N  0.48899125  0.12590544  0.92374002    -0.39800
C706        C  0.51474093  0.09209519  0.34301856    -0.04800
C707        C  0.51117713  0.12161884  0.35170962     0.09400
C708        C  0.50964900  0.12844207  0.38163279    -0.02200
C709        C  0.51074506  0.10588283  0.40257398    -0.00400
C710        C  0.51329021  0.07636977  0.39375720    -0.04000
C711        C  0.51590337  0.06961511  0.36396197     0.03000
C712        C  0.50817461  0.14512183  0.32906975     0.09800
C713        C  0.50711934  0.15870327  0.39083695     0.35700
C714        C  0.51982750  0.03944503  0.35486273     0.39200
C715        C  0.48047955  0.15676828  0.32250200    -0.04400
C716        C  0.47677635  0.17488711  0.29798684     0.02800
C717        C  0.50059934  0.18113583  0.27957614    -0.04000
C718        C  0.52869383  0.17173155  0.28763045    -0.00200
C719        C  0.53249340  0.15390190  0.31238839    -0.02800
C720        C  0.45552608  0.14897111  0.34017946     0.36500
C721        C  0.55344379  0.17912611  0.26954527     0.40100
C722        C  0.44823226  0.18647868  0.29112353     0.39200
C723        C  0.56126845  0.14355644  0.32009334     0.36100
C724        C  0.51695908  0.08480612  0.31241084     0.36800
C725        C  0.50989129  0.11305069  0.43324936     0.40100
N726        N  0.42550555  0.19591514  0.28576442    -0.38000
N727        N  0.43566723  0.14280754  0.35438148    -0.39600
N728        N  0.57316613  0.18514078  0.25509950    -0.37300
N729        N  0.58420565  0.13521781  0.32627274    -0.39700
N730        N  0.50506998  0.18286114  0.39819129    -0.39500
N731        N  0.50948293  0.11873813  0.45775703    -0.37100
N732        N  0.52312888  0.01537976  0.34766819    -0.38200
N733        N  0.51891141  0.07906610  0.28799093    -0.39800
C734        C  0.42789480  0.12305466  0.16524210    -0.04800
C735        C  0.44223092  0.11918715  0.13842808     0.09400
C736        C  0.46777542  0.13506168  0.13229662    -0.02200
C737        C  0.47959313  0.15399188  0.15330306    -0.00400
C738        C  0.46469197  0.15891580  0.17981705    -0.04000
C739        C  0.43853109  0.14359165  0.18551755     0.03000
C740        C  0.43123780  0.09760315  0.11676937     0.09800
C741        C  0.48192882  0.13175195  0.10426727     0.35700
C742        C  0.42206864  0.14941540  0.21180270     0.39200
C743        C  0.40760733  0.10478989  0.09861690    -0.04400
C744        C  0.39874020  0.08515639  0.07671466     0.02800
C745        C  0.41335097  0.05819878  0.07312134    -0.04000
C746        C  0.43733501  0.05129353  0.09101641    -0.00200
C747        C  0.44594899  0.07075968  0.11305881    -0.02800
C748        C  0.39269938  0.13253633  0.10229805     0.36500
C749        C  0.45352624  0.02439591  0.08632229     0.40100
C750        C  0.37504844  0.09291092  0.05743738     0.39200
C751        C  0.47015397  0.06335232  0.13185124     0.36100
C752        C  0.40252725  0.10548309  0.17211119     0.36800
C753        C  0.50766705  0.16750782  0.14793017     0.40100
N754        N  0.35643577  0.09918320  0.04174782    -0.38000
N755        N  0.38073831  0.15463038  0.10532483    -0.39600
N756        N  0.46636259  0.00291898  0.08254624    -0.37300
N757        N  0.48948494  0.05756374  0.14684155    -0.39700
N758        N  0.49302295  0.12907202  0.08183967    -0.39500
N759        N  0.53010304  0.17816202  0.14364337    -0.37100
N760        N  0.40875664  0.15401685  0.23267292    -0.38200
N761        N  0.38244458  0.09127454  0.17766885    -0.39800
C762        C  0.49179645  0.87282003  0.34527681    -0.04800
C763        C  0.49370337  0.84330723  0.35425472     0.09400
C764        C  0.49918437  0.83702686  0.38376699    -0.02200
C765        C  0.50324283  0.86007522  0.40398366    -0.00400
C766        C  0.50203628  0.88949623  0.39476168    -0.04000
C767        C  0.49614579  0.89577293  0.36538933     0.03000
C768        C  0.49065325  0.81923278  0.33208126     0.09800
C769        C  0.50051444  0.80687083  0.39330119     0.35700
C770        C  0.49490329  0.92595884  0.35579146     0.39200
C771        C  0.51360436  0.81366035  0.31238651    -0.04400
C772        C  0.50896943  0.79578166  0.28772955     0.02800
C773        C  0.48144178  0.78295530  0.28276879    -0.04000
C774        C  0.45938957  0.78622251  0.30397450    -0.00200
C775        C  0.46392174  0.80440137  0.32850156    -0.02800
C776        C  0.54153744  0.82776230  0.31672619     0.36500
C777        C  0.43148589  0.77209396  0.29964362     0.40100
C778        C  0.53181930  0.79250563  0.26621098     0.39200
C779        C  0.44056419  0.80919917  0.34917637     0.36100
C780        C  0.48507157  0.87955328  0.31526042     0.36800
C781        C  0.50787757  0.85358877  0.43442552     0.40100
N782        N  0.54998297  0.78997184  0.24895327    -0.38000
N783        N  0.56373749  0.83915185  0.32030671    -0.39600
N784        N  0.40924681  0.76074125  0.29618365    -0.37300
N785        N  0.42198593  0.81303456  0.36575426    -0.39700
N786        N  0.50143518  0.78278964  0.40095073    -0.39500
N787        N  0.51129782  0.84850194  0.45878448    -0.37100
N788        N  0.49400444  0.95006097  0.34820588    -0.38200
N789        N  0.47964918  0.88486432  0.29132049    -0.39800
C790        C  0.43216940  0.88371452  0.10189645    -0.04800
C791        C  0.41252699  0.87588504  0.12418079     0.09400
C792        C  0.38372059  0.88674214  0.12352831    -0.02200
C793        C  0.37410852  0.90352116  0.09972957    -0.00400
C794        C  0.39409958  0.91238812  0.07818515    -0.04000
C795        C  0.42336671  0.90295948  0.07980452     0.03000
C796        C  0.42181090  0.85472653  0.14718496     0.09800
C797        C  0.36422457  0.88115753  0.14767415     0.35700
C798        C  0.44452843  0.91321974  0.05871989     0.39200
C799        C  0.44404352  0.86219543  0.16702627    -0.04400
C800        C  0.45585576  0.84067485  0.18547228     0.02800
C801        C  0.44343851  0.81228853  0.18638023    -0.04000
C802        C  0.41936502  0.80579336  0.16838807    -0.00200
C803        C  0.40964430  0.82635636  0.14787884    -0.02800
C804        C  0.45496593  0.89198032  0.16823058     0.36500
C805        C  0.40418200  0.77810248  0.17126381     0.40100
C806        C  0.48170473  0.84744425  0.20228905     0.39200
C807        C  0.38778902  0.81792142  0.12674898     0.36100
C808        C  0.46136693  0.87160531  0.10139948     0.36800
C809        C  0.34374056  0.91175596  0.09742293     0.40100
N810        N  0.50240774  0.85277481  0.21557403    -0.38000
N811        N  0.46360811  0.91575077  0.16932243    -0.39600
N812        N  0.39200621  0.75607924  0.17373121    -0.37300
N813        N  0.37045538  0.81126753  0.10977066    -0.39700
N814        N  0.34882616  0.87689048  0.16711166    -0.39500
N815        N  0.31947030  0.91821052  0.09553972    -0.37100
N816        N  0.46131329  0.92149759  0.04188546    -0.38200
N817        N  0.48463250  0.86191617  0.10102531    -0.39800
C818        C  0.86465295  0.35811128  0.48128443    -0.04800
C819        C  0.86762640  0.33424040  0.50046785     0.09400
C820        C  0.89367817  0.33118986  0.51637706    -0.02200
C821        C  0.91566916  0.35274556  0.51472705    -0.00400
C822        C  0.91243121  0.37729182  0.49623640    -0.04000
C823        C  0.88705845  0.37933915  0.47890922     0.03000
C824        C  0.84327081  0.31253806  0.50491852     0.09800
C825        C  0.89800813  0.30541267  0.53419592     0.35700
C826        C  0.88344497  0.40367891  0.45917476     0.39200
C827        C  0.83782384  0.29022312  0.48431048    -0.04400
C828        C  0.81785152  0.26752151  0.49063920     0.02800
C829        C  0.80435284  0.26602054  0.51821371    -0.04000
C830        C  0.80820290  0.28944358  0.53794370    -0.00200
C831        C  0.82726949  0.31275684  0.53118140    -0.02800
C832        C  0.85427220  0.28946141  0.45743578     0.36500
C833        C  0.79320855  0.28899381  0.56565702     0.40100
C834        C  0.81227547  0.24488118  0.46924484     0.39200
C835        C  0.83157148  0.33636211  0.55186571     0.36100
C836        C  0.83835590  0.36093374  0.46417734     0.36800
C837        C  0.94197765  0.34907552  0.53170766     0.40100
N838        N  0.80757827  0.22704804  0.45198389    -0.38000
N839        N  0.86751956  0.28869695  0.43605559    -0.39600
N840        N  0.78119934  0.28865424  0.58775885    -0.37300
N841        N  0.83518174  0.35522139  0.56830644    -0.39700
N842        N  0.90143066  0.28472458  0.54821190    -0.39500
N843        N  0.96290206  0.34615643  0.54534496    -0.37100
N844        N  0.88040404  0.42288273  0.44315785    -0.38200
N845        N  0.81741651  0.36304408  0.45041960    -0.39800
C846        C  0.87861654  0.62230152  0.48617114    -0.04800
C847        C  0.87823806  0.64386527  0.50814725     0.09400
C848        C  0.90046247  0.64421903  0.52922195    -0.02200
C849        C  0.92323143  0.62354362  0.52810957    -0.00400
C850        C  0.92350646  0.60144121  0.50643425    -0.04000
C851        C  0.90120599  0.60122846  0.48519493     0.03000
C852        C  0.85581436  0.66775462  0.50841127     0.09800
C853        C  0.89993033  0.66617225  0.55208804     0.35700
C854        C  0.90120257  0.57926315  0.46240290     0.39200
C855        C  0.83103206  0.66567301  0.52643733    -0.04400
C856        C  0.81356415  0.69062692  0.53172567     0.02800
C857        C  0.82095355  0.71781403  0.51914957    -0.04000
C858        C  0.84435885  0.71919546  0.49924217    -0.00200
C859        C  0.86155644  0.69418180  0.49372041    -0.02800
C860        C  0.82433249  0.63813519  0.54048350     0.36500
C861        C  0.85146550  0.74672238  0.48534197     0.40100
C862        C  0.78904891  0.68877321  0.55148328     0.39200
C863        C  0.88601881  0.69585387  0.47386051     0.36100
C864        C  0.85555738  0.62172703  0.46474142     0.36800
C865        C  0.94725611  0.62638792  0.54832768     0.40100
N866        N  0.76944223  0.68736069  0.56721565    -0.38000
N867        N  0.81901029  0.61610742  0.55162782    -0.39600
N868        N  0.85720188  0.76871623  0.47433879    -0.37300
N869        N  0.90550075  0.69696565  0.45795121    -0.39700
N870        N  0.89932165  0.68360268  0.57037030    -0.39500
N871        N  0.96646005  0.62890494  0.56437110    -0.37100
N872        N  0.90112104  0.56194875  0.44400792    -0.38200
N873        N  0.83706924  0.62122218  0.44771940    -0.39800
C874        C  0.14680805  0.36303153  0.48302757    -0.04800
C875        C  0.14557756  0.33647909  0.49842719     0.09400
C876        C  0.12085657  0.33019294  0.51560104    -0.02200
C877        C  0.09735541  0.35013513  0.51705111    -0.00400
C878        C  0.09776876  0.37601551  0.50024904    -0.04000
C879        C  0.12293226  0.38254920  0.48365437     0.03000
C880        C  0.16965264  0.31434004  0.49604861     0.09800
C881        C  0.11927586  0.30258479  0.53102953     0.35700
C882        C  0.12467416  0.40972405  0.46766600     0.39200
C883        C  0.19009765  0.31131919  0.51867737    -0.04400
C884        C  0.20791765  0.28614853  0.52004720     0.02800
C885        C  0.20534715  0.26396725  0.49876608    -0.04000
C886        C  0.18767741  0.26889802  0.47422438    -0.00200
C887        C  0.16991786  0.29409302  0.47281566    -0.02800
C888        C  0.19184785  0.33357506  0.54111143     0.36500
C889        C  0.18669737  0.24720915  0.45120393     0.40100
C890        C  0.22761089  0.28215324  0.54426536     0.39200
C891        C  0.15088230  0.29854818  0.44815859     0.36100
C892        C  0.17268020  0.37016505  0.46644774     0.36800
C893        C  0.07242260  0.34340503  0.53518165     0.40100
N894        N  0.24343516  0.27895766  0.56351465    -0.38000
N895        N  0.19326899  0.35147221  0.55889512    -0.39600
N896        N  0.18603611  0.22991007  0.43280472    -0.37300
N897        N  0.13580318  0.30232404  0.42842454    -0.39700
N898        N  0.11814688  0.28042727  0.54308526    -0.39500
N899        N  0.05268297  0.33800906  0.54985479    -0.37100
N900        N  0.12598313  0.43136392  0.45478725    -0.38200
N901        N  0.19336446  0.37588811  0.45327972    -0.39800
C902        C  0.12826103  0.63640036  0.53190804    -0.04800
C903        C  0.15024597  0.63566859  0.51050947     0.09400
C904        C  0.14984375  0.61363049  0.48911549    -0.02200
C905        C  0.12685294  0.59314404  0.48827700    -0.00400
C906        C  0.10489766  0.59337295  0.50997535    -0.04000
C907        C  0.10556798  0.61558511  0.53155355     0.03000
C908        C  0.17123431  0.66061237  0.50840685     0.09800
C909        C  0.17305252  0.61235522  0.46774099     0.35700
C910        C  0.08154334  0.61908098  0.55173705     0.39200
C911        C  0.19490296  0.66289052  0.52777808    -0.04400
C912        C  0.21035156  0.68950005  0.53018255     0.02800
C913        C  0.20234631  0.71361865  0.51291865    -0.04000
C914        C  0.18080168  0.71023400  0.49137146    -0.00200
C915        C  0.16524522  0.68379782  0.48913496    -0.02800
C916        C  0.20263389  0.63816588  0.54581319     0.36500
C917        C  0.17364426  0.73456432  0.47250363     0.40100
C918        C  0.23341605  0.69259329  0.55138488     0.39200
C919        C  0.14208586  0.68092248  0.46794575     0.36100
C920        C  0.12854998  0.65931490  0.55383458     0.36800
C921        C  0.12527264  0.57304232  0.46400329     0.40100
N922        N  0.25183849  0.69503367  0.56831483    -0.38000
N923        N  0.20890864  0.61836084  0.56009380    -0.39600
N924        N  0.16796128  0.75400686  0.45750250    -0.37300
N925        N  0.12370194  0.67848814  0.45096890    -0.39700
N926        N  0.19169315  0.61129734  0.45084461    -0.39500
N927        N  0.12414872  0.55797940  0.44382385    -0.37100
N928        N  0.06229515  0.62228403  0.56767509    -0.38200
N929        N  0.12895854  0.67756364  0.57131884    -0.39800
C930        C  0.85051801  0.47274715  0.70170642    -0.04800
C931        C  0.84895783  0.49424367  0.67977081     0.09400
C932        C  0.82883556  0.51746571  0.68270491    -0.02200
C933        C  0.81177943  0.52014347  0.70817368    -0.00400
C934        C  0.81467548  0.49962380  0.73084594    -0.04000
C935        C  0.83320654  0.47526063  0.72698666     0.03000
C936        C  0.87057962  0.49386839  0.65517523     0.09800
C937        C  0.82688024  0.53946649  0.66019531     0.35700
C938        C  0.83559168  0.45361206  0.74981942     0.39200
C939        C  0.86633395  0.47577753  0.63065349    -0.04400
C940        C  0.88801016  0.47377354  0.60880961     0.02800
C941        C  0.91426096  0.48989210  0.61130877    -0.04000
C942        C  0.91793675  0.50876725  0.63556603    -0.00200
C943        C  0.89620388  0.51073898  0.65724219    -0.02800
C944        C  0.83947236  0.45937655  0.62789958     0.36500
C945        C  0.94460203  0.52537992  0.63912515     0.40100
C946        C  0.88277796  0.45573549  0.58337897     0.39200
C947        C  0.90035323  0.52988815  0.68210737     0.36100
C948        C  0.87145003  0.44912781  0.69912993     0.36800
C949        C  0.79205416  0.54467527  0.71169895     0.40100
N950        N  0.87849333  0.44135821  0.56308912    -0.38000
N951        N  0.81796172  0.44639379  0.62573281    -0.39600
N952        N  0.96583655  0.53866738  0.64208663    -0.37300
N953        N  0.90347202  0.54519904  0.70192873    -0.39700
N954        N  0.82543961  0.55712541  0.64230102    -0.39500
N955        N  0.77622397  0.56416593  0.71463874    -0.37100
N956        N  0.83734577  0.43633297  0.76804829    -0.38200
N957        N  0.88834551  0.43044623  0.69710896    -0.39800
C958        C  0.84360210  0.58590355  0.86233797    -0.04800
C959        C  0.87290504  0.57682888  0.86474682     0.09400
C960        C  0.88333491  0.55422129  0.84645269    -0.02200
C961        C  0.86402243  0.53869884  0.82840424    -0.00400
C962        C  0.83481461  0.54801547  0.82553679    -0.04000
C963        C  0.82506584  0.57250420  0.84176659     0.03000
C964        C  0.89225633  0.58840588  0.88839527     0.09800
C965        C  0.91389855  0.54616301  0.84706048     0.35700
C966        C  0.79597393  0.58394859  0.83730455     0.39200
C967        C  0.90216074  0.56900515  0.91009964    -0.04400
C968        C  0.92389501  0.57785477  0.92968978     0.02800
C969        C  0.93384611  0.60711710  0.92981548    -0.04000
C970        C  0.92219417  0.62726313  0.90977923    -0.00200
C971        C  0.90224404  0.61771134  0.88842398    -0.02800
C972        C  0.88992821  0.53977825  0.91222812     0.36500
C973        C  0.93093062  0.65772685  0.91113908     0.40100
C974        C  0.93604046  0.55677076  0.94983796     0.39200
C975        C  0.89243156  0.63791313  0.86630876     0.36100
C976        C  0.83210027  0.60803832  0.88186116     0.36800
C977        C  0.87376456  0.51175703  0.81469889     0.40100
N978        N  0.94570723  0.53996871  0.96590682    -0.38000
N979        N  0.88008178  0.51652542  0.91381427    -0.39600
N980        N  0.93796971  0.68201550  0.91239388    -0.37300
N981        N  0.88453724  0.65416627  0.84878553    -0.39700
N982        N  0.93825961  0.53978631  0.84767697    -0.39500
N983        N  0.88142700  0.49004895  0.80415791    -0.37100
N984        N  0.77281488  0.59313328  0.83357118    -0.38200
N985        N  0.82283174  0.62561752  0.89748868    -0.39800
C986        C  0.10973780  0.48912761  0.66702812    -0.04800
C987        C  0.13305734  0.46902398  0.66573819     0.09400
C988        C  0.13555998  0.45026710  0.64146255    -0.02200
C989        C  0.11565467  0.45241634  0.61808694    -0.00400
C990        C  0.09241033  0.47283967  0.61913554    -0.04000
C991        C  0.08932306  0.49076868  0.64412288     0.03000
C992        C  0.15490292  0.46799959  0.69010687     0.09800
C993        C  0.15843157  0.42842090  0.64082402     0.35700
C994        C  0.06431152  0.50991983  0.64710723     0.39200
C995        C  0.14853582  0.45257687  0.71585265    -0.04400
C996        C  0.16646162  0.45584649  0.74058251     0.02800
C997        C  0.19126727  0.47420563  0.73966853    -0.04000
C998        C  0.19908557  0.48742574  0.71306917    -0.00200
C999        C  0.18084353  0.48452644  0.68847147    -0.02800
C1000       C  0.12299608  0.43400318  0.71708762     0.36500
C1001       C  0.22503241  0.50539012  0.71146078     0.40100
C1002       C  0.15883379  0.44111159  0.76739043     0.39200
C1003       C  0.18803350  0.49963160  0.66178303     0.36100
C1004       C  0.10665023  0.50801627  0.69224069     0.36800
C1005       C  0.11973235  0.43408288  0.59262714     0.40100
N1006       N  0.15274454  0.42951519  0.78886016    -0.38000
N1007       N  0.10267120  0.41908453  0.71799597    -0.39600
N1008       N  0.24583111  0.51960835  0.71020959    -0.37300
N1009       N  0.19369332  0.51166888  0.64044104    -0.39700
N1010       N  0.17654639  0.41082635  0.64048879    -0.39500
N1011       N  0.12306393  0.41945542  0.57231902    -0.37100
N1012       N  0.04422837  0.52500168  0.64967559    -0.38200
N1013       N  0.10428672  0.52298584  0.71242941    -0.39800
C1014       C  0.14748387  0.56670215  0.84445622    -0.04800
C1015       C  0.14394317  0.55613603  0.87298826     0.09400
C1016       C  0.16012070  0.53165401  0.88227419    -0.02200
C1017       C  0.17869790  0.51692602  0.86270324    -0.00400
C1018       C  0.18221975  0.52741693  0.83399010    -0.04000
C1019       C  0.16711063  0.55288810  0.82527449     0.03000
C1020       C  0.12261765  0.57044672  0.89307790     0.09800
C1021       C  0.15747236  0.52154753  0.91200280     0.35700
C1022       C  0.17219850  0.56530903  0.79676125     0.39200
C1023       C  0.09605870  0.55641989  0.89954149    -0.04400
C1024       C  0.07624024  0.56944878  0.91901265     0.02800
C1025       C  0.08213198  0.59739118  0.93105959    -0.04000
C1026       C  0.10830787  0.61187971  0.92370130    -0.00200
C1027       C  0.12886859  0.59801120  0.90550988    -0.02800
C1028       C  0.08921839  0.52840792  0.88626084     0.36500
C1029       C  0.11437036  0.64075851  0.93536160     0.40100
C1030       C  0.05003678  0.55371279  0.92717294     0.39200
C1031       C  0.15688480  0.61161268  0.90021763     0.36100
C1032       C  0.13044367  0.59151169  0.83469686     0.36800
C1033       C  0.19339355  0.49043247  0.87196840     0.40100
N1034       N  0.02906767  0.54130825  0.93366107    -0.38000
N1035       N  0.08376858  0.50605613  0.87570016    -0.39600
N1036       N  0.11935601  0.66373456  0.94476204    -0.37300
N1037       N  0.17936947  0.62221314  0.89606138    -0.39700
N1038       N  0.15536579  0.51353685  0.93572560    -0.39500
N1039       N  0.20517852  0.46935727  0.87937839    -0.37100
N1040       N  0.17635850  0.57526293  0.77405727    -0.38200
N1041       N  0.11674757  0.61126505  0.82700100    -0.39800
C1042       C  0.84012288  0.53145992  0.31721959    -0.04800
C1043       C  0.85506764  0.50492260  0.32203455     0.09400
C1044       C  0.84870615  0.48043811  0.30429060    -0.02200
C1045       C  0.82908920  0.48304515  0.28073289    -0.00400
C1046       C  0.81603946  0.51026246  0.27442417    -0.04000
C1047       C  0.82059548  0.53405927  0.29364974     0.03000
C1048       C  0.87840777  0.50315065  0.34494148     0.09800
C1049       C  0.86328714  0.45285993  0.30964499     0.35700
C1050       C  0.80554562  0.56148665  0.28874759     0.39200
C1051       C  0.87112063  0.49791442  0.37428381    -0.04400
C1052       C  0.89314899  0.49624694  0.39564937     0.02800
C1053       C  0.92268817  0.49928561  0.38782686    -0.04000
C1054       C  0.92997133  0.50543312  0.35866079    -0.00200
C1055       C  0.90792009  0.50746566  0.33733807    -0.02800
C1056       C  0.84086356  0.49472443  0.38253114     0.36500
C1057       C  0.96013585  0.51008067  0.35063498     0.40100
C1058       C  0.88542036  0.49273587  0.42596828     0.39200
C1059       C  0.91547568  0.51468407  0.30762087     0.36100
C1060       C  0.84582540  0.55645489  0.33585279     0.36800
C1061       C  0.82304140  0.45799963  0.26233604     0.40100
N1062       N  0.87946356  0.49039953  0.45027438    -0.38000
N1063       N  0.81668099  0.49230918  0.38912368    -0.39600
N1064       N  0.98415478  0.51399378  0.34415014    -0.37300
N1065       N  0.92142033  0.52063832  0.28393637    -0.39700
N1066       N  0.87506203  0.43091007  0.31393196    -0.39500
N1067       N  0.81794119  0.43797115  0.24776514    -0.37100
N1068       N  0.79335203  0.58331311  0.28502339    -0.38200
N1069       N  0.85048120  0.57632873  0.35078445    -0.39800
C1070       C  0.91744403  0.57990599  0.11306676    -0.04800
C1071       C  0.89229262  0.59662554  0.11897778     0.09400
C1072       C  0.88883522  0.62440497  0.10607795    -0.02200
C1073       C  0.91052431  0.63542125  0.08732996    -0.00400
C1074       C  0.93513070  0.61814761  0.08054566    -0.04000
C1075       C  0.93859029  0.59044114  0.09369422     0.03000
C1076       C  0.86927337  0.58419252  0.13826139     0.09800
C1077       C  0.86231825  0.64090392  0.11098776     0.35700
C1078       C  0.96338606  0.57213404  0.08631545     0.39200
C1079       C  0.86606653  0.59443932  0.16697902    -0.04400
C1080       C  0.84621509  0.58074897  0.18594134     0.02800
C1081       C  0.83121319  0.55512657  0.17704761    -0.04000
C1082       C  0.83482403  0.54479881  0.14818958    -0.00200
C1083       C  0.85250791  0.56026799  0.12854196    -0.02800
C1084       C  0.88377888  0.61863872  0.17721635     0.36500
C1085       C  0.82180825  0.51735305  0.13897047     0.40100
C1086       C  0.84108470  0.59346991  0.21438574     0.39200
C1087       C  0.85380133  0.55141162  0.09826697     0.36100
C1088       C  0.92104778  0.55126397  0.12614959     0.36800
C1089       C  0.90701750  0.66392128  0.07404248     0.40100
N1090       N  0.83718539  0.60390181  0.23698672    -0.38000
N1091       N  0.89801208  0.63786338  0.18537222    -0.39600
N1092       N  0.81157596  0.49539689  0.13164263    -0.37300
N1093       N  0.85468853  0.54460149  0.07405594    -0.39700
N1094       N  0.84102974  0.65390319  0.11479679    -0.39500
N1095       N  0.90413831  0.68661175  0.06333118    -0.37100
N1096       N  0.98319931  0.55764760  0.08039690    -0.38200
N1097       N  0.92373383  0.52830566  0.13633848    -0.39800
C1098       C  0.17719905  0.46333237  0.31136370    -0.04800
C1099       C  0.16839812  0.48921203  0.32584425     0.09400
C1100       C  0.17943834  0.51636684  0.31626057    -0.02200
C1101       C  0.19742305  0.51770915  0.29137637    -0.00400
C1102       C  0.20263972  0.49232093  0.27443168    -0.04000
C1103       C  0.19363282  0.46488307  0.28535608     0.03000
C1104       C  0.14566469  0.48800737  0.34949401     0.09800
C1105       C  0.17082807  0.54315335  0.33089953     0.35700
C1106       C  0.19964356  0.43841841  0.26898886     0.39200
C1107       C  0.15320961  0.49219098  0.37895207    -0.04400
C1108       C  0.13158999  0.49095605  0.40086942     0.02800
C1109       C  0.10212556  0.48605283  0.39352103    -0.04000
C1110       C  0.09455250  0.48214092  0.36406276    -0.00200
C1111       C  0.11618190  0.48301576  0.34219601    -0.02800
C1112       C  0.18320850  0.49810521  0.38666509     0.36500
C1113       C  0.06429631  0.47812358  0.35613241     0.40100
C1114       C  0.13981194  0.49420077  0.43107759     0.39200
C1115       C  0.10800677  0.47950565  0.31197110     0.36100
C1116       C  0.16835839  0.43516863  0.32278206     0.36800
C1117       C  0.20993605  0.54543936  0.28253242     0.40100
N1118       N  0.14650334  0.49665249  0.45518300    -0.38000
N1119       N  0.20710466  0.50313169  0.39279245    -0.39600
N1120       N  0.04014114  0.47498656  0.34980926    -0.37300
N1121       N  0.10159365  0.47669996  0.28783225    -0.39700
N1122       N  0.16381511  0.56455534  0.34246114    -0.39500
N1123       N  0.22018934  0.56744112  0.27550003    -0.37100
N1124       N  0.20441944  0.41724848  0.25595968    -0.38200
N1125       N  0.16136410  0.41276401  0.33213056    -0.39800
C1126       C  0.11421430  0.61305707  0.12195237    -0.04800
C1127       C  0.11815723  0.58229450  0.12240911     0.09400
C1128       C  0.10266043  0.56470143  0.10240160    -0.02200
C1129       C  0.08255414  0.57744255  0.08327903    -0.00400
C1130       C  0.07990342  0.60821651  0.08159206    -0.04000
C1131       C  0.09612532  0.62603662  0.10073103     0.03000
C1132       C  0.13844343  0.56786013  0.14362794     0.09800
C1133       C  0.10796920  0.53340500  0.10085389     0.35700
C1134       C  0.09452763  0.65761375  0.09826485     0.39200
C1135       C  0.12737747  0.54741007  0.16377908    -0.04400
C1136       C  0.14644530  0.52910335  0.17937475     0.02800
C1137       C  0.17697356  0.53343321  0.17776038    -0.04000
C1138       C  0.18786664  0.55605855  0.15976481    -0.00200
C1139       C  0.16885008  0.57214754  0.14178269    -0.02800
C1140       C  0.09617430  0.54495939  0.16815866     0.36500
C1141       C  0.21857211  0.56345013  0.16021629     0.40100
C1142       C  0.13443423  0.50497841  0.19596247     0.39200
C1143       C  0.18074464  0.59266936  0.12094068     0.36100
C1144       C  0.12861992  0.63132380  0.14333518     0.36800
C1145       C  0.06498900  0.55881540  0.06462868     0.40100
N1146       N  0.12478386  0.48572423  0.20910474    -0.38000
N1147       N  0.07129998  0.54313295  0.17166410    -0.39600
N1148       N  0.24305623  0.56935068  0.16072102    -0.37300
N1149       N  0.19027632  0.60911933  0.10440907    -0.39700
N1150       N  0.11223474  0.50846983  0.09958756    -0.39500
N1151       N  0.05097824  0.54412921  0.04965024    -0.37100
N1152       N  0.09329058  0.68282478  0.09624357    -0.38200
N1153       N  0.14015708  0.64592274  0.16036960    -0.39800
C1154       C  0.53326691  0.28621148  0.16567749    -0.04800
C1155       C  0.51014801  0.30603570  0.16104891     0.09400
C1156       C  0.48428418  0.30312479  0.17737997    -0.02200
C1157       C  0.48056548  0.27913206  0.19625978    -0.00400
C1158       C  0.50294466  0.25822804  0.19950000    -0.04000
C1159       C  0.52972488  0.26246648  0.18498345     0.03000
C1160       C  0.51193115  0.32849739  0.13733551     0.09800
C1161       C  0.46100844  0.32421805  0.17372694     0.35700
C1162       C  0.55294863  0.24128469  0.18850422     0.39200
C1163       C  0.49735978  0.32362026  0.11077327    -0.04400
C1164       C  0.49756636  0.34521842  0.08887193     0.02800
C1165       C  0.51332062  0.37156110  0.09286565    -0.04000
C1166       C  0.52888292  0.37579894  0.11906208    -0.00200
C1167       C  0.52764457  0.35467619  0.14140225    -0.02800
C1168       C  0.48245075  0.29604613  0.10588739     0.36500
C1169       C  0.54593187  0.40207065  0.12339931     0.40100
C1170       C  0.48233626  0.33971872  0.06182979     0.39200
C1171       C  0.54215106  0.36004352  0.16884729     0.36100
C1172       C  0.56009360  0.28936896  0.14937037     0.36800
C1173       C  0.45295963  0.27479485  0.21091753     0.40100
N1174       N  0.47013935  0.33527090  0.04029520    -0.38000
N1175       N  0.47071516  0.27396042  0.10206605    -0.39600
N1176       N  0.55995706  0.42278244  0.12689466    -0.37300
N1177       N  0.55363115  0.36432793  0.19079762    -0.39700
N1178       N  0.44250615  0.34111148  0.17070467    -0.39500
N1179       N  0.43090311  0.27113711  0.22250252    -0.37100
N1180       N  0.57147996  0.22438218  0.19131494    -0.38200
N1181       N  0.58148089  0.29194530  0.13632721    -0.39800
C1182       C  0.47127459  0.63856774  0.11336057    -0.04800
C1183       C  0.49153457  0.63851058  0.13642001     0.09400
C1184       C  0.51347391  0.61684539  0.13682403    -0.02200
C1185       C  0.51512282  0.59546251  0.11450797    -0.00400
C1186       C  0.49502197  0.59560663  0.09122582    -0.04000
C1187       C  0.47309185  0.61747967  0.09082872     0.03000
C1188       C  0.49045125  0.66231423  0.15928232     0.09800
C1189       C  0.53455737  0.61672022  0.16019856     0.35700
C1190       C  0.45315099  0.61948854  0.06652521     0.39200
C1191       C  0.46791760  0.66291838  0.18024712    -0.04400
C1192       C  0.46401537  0.68778366  0.19831638     0.02800
C1193       C  0.48370810  0.71151127  0.19689161    -0.04000
C1194       C  0.50759842  0.70979360  0.17759235    -0.00200
C1195       C  0.51066165  0.68562686  0.15854572    -0.02800
C1196       C  0.44844172  0.63809931  0.18280918     0.36500
C1197       C  0.52842400  0.73360743  0.17654813     0.40100
C1198       C  0.43856545  0.68987150  0.21685687     0.39200
C1199       C  0.53395544  0.68532520  0.13727652     0.36100
C1200       C  0.44887612  0.66095164  0.11243262     0.36800
C1201       C  0.53720217  0.57286257  0.11599569     0.40100
N1202       N  0.41806712  0.69172377  0.23137861    -0.38000
N1203       N  0.43307765  0.61815610  0.18497888    -0.39600
N1204       N  0.54503359  0.75262299  0.17580071    -0.37300
N1205       N  0.55252714  0.68495494  0.12028155    -0.39700
N1206       N  0.55153310  0.61681800  0.17872613    -0.39500
N1207       N  0.55483328  0.55483664  0.11725279    -0.37100
N1208       N  0.43721311  0.62130714  0.04717853    -0.38200
N1209       N  0.43097807  0.67875943  0.11178810    -0.39800
C1210       C  0.51123421  0.61468014  0.86304801    -0.04800
C1211       C  0.49863992  0.64201576  0.87022427     0.09400
C1212       C  0.48800477  0.64655527  0.89873318    -0.02200
C1213       C  0.48940025  0.62389636  0.91958302    -0.00400
C1214       C  0.50140693  0.59637361  0.91220431    -0.04000
C1215       C  0.51289558  0.59209611  0.88402736     0.03000
C1216       C  0.49645518  0.66614583  0.84793897     0.09800
C1217       C  0.47550384  0.67463872  0.90658603     0.35700
C1218       C  0.52628199  0.56431962  0.87659342     0.39200
C1219       C  0.47391321  0.66592382  0.82707717    -0.04400
C1220       C  0.47002907  0.69000048  0.80817121     0.02800
C1221       C  0.48867450  0.71455927  0.80981530    -0.04000
C1222       C  0.51192821  0.71426365  0.82984732    -0.00200
C1223       C  0.51585895  0.69016380  0.84872459    -0.02800
C1224       C  0.45393424  0.64139881  0.82590604     0.36500
C1225       C  0.53115331  0.73934544  0.83174731     0.40100
C1226       C  0.44587482  0.69022414  0.78794738     0.39200
C1227       C  0.53936462  0.69042666  0.86966741     0.36100
C1228       C  0.52239733  0.60979876  0.83398699     0.36800
C1229       C  0.47940985  0.62924519  0.94902129     0.40100
N1230       N  0.42659134  0.69055759  0.77182485    -0.38000
N1231       N  0.43801300  0.62179789  0.82498407    -0.39600
N1232       N  0.54644160  0.75941608  0.83323513    -0.37300
N1233       N  0.55803506  0.69059229  0.88649443    -0.39700
N1234       N  0.46564133  0.69710840  0.91282299    -0.39500
N1235       N  0.47169042  0.63350109  0.97259436    -0.37100
N1236       N  0.53709341  0.54217134  0.87080511    -0.38200
N1237       N  0.53118296  0.60589559  0.81073146    -0.39800
C1238       C  0.66974146  0.50619946  0.89555090    -0.04800
C1239       C  0.67022884  0.48381897  0.87431908     0.09400
C1240       C  0.64801855  0.46258894  0.87424639    -0.02200
C1241       C  0.62509398  0.46405317  0.89478392    -0.00400
C1242       C  0.62405098  0.48689634  0.91575052    -0.04000
C1243       C  0.64702274  0.50759110  0.91631521     0.03000
C1244       C  0.69460384  0.48254040  0.85246086     0.09800
C1245       C  0.64901902  0.43900468  0.85309831     0.35700
C1246       C  0.64853713  0.52922646  0.93937225     0.39200
C1247       C  0.72148512  0.46966586  0.85987505    -0.04400
C1248       C  0.74580462  0.47281810  0.84135052     0.02800
C1249       C  0.74362934  0.48949023  0.81560979    -0.04000
C1250       C  0.71590312  0.49919317  0.80652368    -0.00200
C1251       C  0.69142814  0.49557788  0.82487270    -0.02800
C1252       C  0.72419135  0.45363846  0.88684413     0.36500
C1253       C  0.71272601  0.51382929  0.77884149     0.40100
C1254       C  0.77326384  0.45911532  0.84878064     0.39200
C1255       C  0.66304107  0.50574815  0.81568901     0.36100
C1256       C  0.69298970  0.52767333  0.89620842     0.36800
C1257       C  0.60263377  0.44185631  0.89401148     0.40100
N1258       N  0.79516945  0.44803834  0.85444524    -0.38000
N1259       N  0.72630966  0.44073615  0.90831621    -0.39600
N1260       N  0.71018861  0.52524159  0.75659318    -0.37300
N1261       N  0.64027642  0.51353387  0.80829294    -0.39700
N1262       N  0.64994410  0.42020049  0.83622302    -0.39500
N1263       N  0.58514773  0.42369149  0.89302624    -0.37100
N1264       N  0.64998671  0.54634062  0.95790146    -0.38200
N1265       N  0.71159119  0.54473696  0.89670225    -0.39800
C1266       C  0.52147447  0.36183500  0.85873148    -0.04800
C1267       C  0.51902593  0.33165476  0.86475714     0.09400
C1268       C  0.51674780  0.32233546  0.89392672    -0.02200
C1269       C  0.51733802  0.34296109  0.91683194    -0.00400
C1270       C  0.51875746  0.37317239  0.91075042    -0.04000
C1271       C  0.52049121  0.38256816  0.88160488     0.03000
C1272       C  0.51723740  0.30946342  0.84063851     0.09800
C1273       C  0.51299757  0.29148122  0.90029064     0.35700
C1274       C  0.52030023  0.41359219  0.87511793     0.39200
C1275       C  0.54108115  0.29087886  0.83457557    -0.04400
C1276       C  0.53738241  0.26595418  0.81666627     0.02800
C1277       C  0.50993142  0.25978894  0.80433419    -0.04000
C1278       C  0.48683056  0.27980122  0.80836412    -0.00200
C1279       C  0.49050349  0.30461976  0.82633154    -0.02800
C1280       C  0.56904957  0.29677346  0.84787135     0.36500
C1281       C  0.45857851  0.27351459  0.79579208     0.40100
C1282       C  0.56112776  0.24539076  0.81281864     0.39200
C1283       C  0.46626090  0.32430167  0.83142934     0.36100
C1284       C  0.52503045  0.37146046  0.82898640     0.36800
C1285       C  0.51647246  0.33310209  0.94672687     0.40100
N1286       N  0.58000323  0.22887099  0.80986752    -0.38000
N1287       N  0.59136048  0.30158414  0.85847467    -0.39600
N1288       N  0.43604993  0.26820571  0.78590294    -0.37300
N1289       N  0.44697790  0.34010820  0.83542700    -0.39700
N1290       N  0.50981951  0.26686251  0.90520775    -0.39500
N1291       N  0.51597968  0.32526638  0.97059294    -0.37100
N1292       N  0.51995089  0.43836586  0.86996972    -0.38200
N1293       N  0.52806856  0.37906696  0.80523253    -0.39800
C1294       C  0.34685295  0.48915994  0.89535565    -0.04800
C1295       C  0.34867400  0.47067969  0.87078520     0.09400
C1296       C  0.37337210  0.45269621  0.86712294    -0.02200
C1297       C  0.39645462  0.45371963  0.88745512    -0.00400
C1298       C  0.39497432  0.47266846  0.91187090    -0.04000
C1299       C  0.36985548  0.49032403  0.91567600     0.03000
C1300       C  0.32504036  0.47151352  0.84818864     0.09800
C1301       C  0.37508941  0.43333370  0.84217354     0.35700
C1302       C  0.36714159  0.50933900  0.94083484     0.39200
C1303       C  0.32388160  0.49499142  0.82832115    -0.04400
C1304       C  0.29946032  0.49855150  0.81004795     0.02800
C1305       C  0.27601350  0.47864662  0.81146688    -0.04000
C1306       C  0.27834627  0.45377669  0.82946274    -0.00200
C1307       C  0.30264849  0.45032467  0.84794791    -0.02800
C1308       C  0.34725793  0.51630166  0.82782224     0.36500
C1309       C  0.25481863  0.43263020  0.83007021     0.40100
C1310       C  0.29786012  0.52337302  0.79060024     0.39200
C1311       C  0.30378443  0.42590390  0.86791199     0.36100
C1312       C  0.32101251  0.50690811  0.89978385     0.36800
C1313       C  0.42227459  0.43616653  0.88238197     0.40100
N1314       N  0.29670861  0.54313327  0.77499137    -0.38000
N1315       N  0.36595612  0.53326210  0.82770454    -0.39600
N1316       N  0.23595993  0.41585068  0.83031370    -0.37300
N1317       N  0.30458066  0.40640653  0.88386441    -0.39700
N1318       N  0.37631033  0.41780290  0.82230673    -0.39500
N1319       N  0.44287127  0.42218375  0.87819544    -0.37100
N1320       N  0.36491282  0.52459893  0.96082934    -0.38200
N1321       N  0.30034369  0.52097344  0.90325197    -0.39800
C1322       C  0.37112291  0.45469013  0.13356862    -0.04800
C1323       C  0.34688304  0.47346084  0.13092678     0.09400
C1324       C  0.34594420  0.49340625  0.10759829    -0.02200
C1325       C  0.36873934  0.49440642  0.08689092    -0.00400
C1326       C  0.39294125  0.47523379  0.08906107    -0.04000
C1327       C  0.39400981  0.45552520  0.11284316     0.03000
C1328       C  0.32187281  0.47227985  0.15225754     0.09800
C1329       C  0.32111604  0.51281131  0.10478522     0.35700
C1330       C  0.41906278  0.43663224  0.11672758     0.39200
C1331       C  0.32213030  0.48972038  0.17764560    -0.04400
C1332       C  0.29674212  0.49256251  0.19494807     0.02800
C1333       C  0.27075155  0.47793167  0.18707534    -0.04000
C1334       C  0.27133959  0.45851574  0.16302541    -0.00200
C1335       C  0.29670528  0.45581613  0.14568442    -0.02800
C1336       C  0.34825510  0.50572037  0.18529207     0.36500
C1337       C  0.24564224  0.44158848  0.15585156     0.40100
C1338       C  0.29692269  0.51193748  0.21994454     0.39200
C1339       C  0.29670249  0.43684005  0.12038321     0.36100
C1340       C  0.37246120  0.43446168  0.15771232     0.36800
C1341       C  0.36654319  0.51468635  0.06283168     0.40100
N1342       N  0.29693078  0.52729905  0.23997635    -0.38000
N1343       N  0.36912721  0.51845481  0.19144712    -0.39600
N1344       N  0.22521720  0.42794598  0.15011522    -0.37300
N1345       N  0.29687925  0.42175797  0.10014359    -0.39700
N1346       N  0.30122039  0.52817639  0.10264472    -0.39500
N1347       N  0.36470210  0.53094634  0.04370519    -0.37100
N1348       N  0.43901259  0.42151406  0.11991698    -0.38200
N1349       N  0.37356797  0.41834168  0.17700749    -0.39800
C1350       C  0.70826261  0.47718178  0.16199741    -0.04800
C1351       C  0.68844560  0.50039087  0.15738063     0.09400
C1352       C  0.69156976  0.52644015  0.17373408    -0.02200
C1353       C  0.71504020  0.52979537  0.19329509    -0.00400
C1354       C  0.73609609  0.50748061  0.19629793    -0.04000
C1355       C  0.73199751  0.48072197  0.18133341     0.03000
C1356       C  0.66478096  0.49785293  0.13475801     0.09800
C1357       C  0.67149015  0.55046616  0.16925238     0.35700
C1358       C  0.75296970  0.45730680  0.18485953     0.39200
C1359       C  0.63562242  0.49277750  0.14312479    -0.04400
C1360       C  0.61323478  0.49181425  0.12205736     0.02800
C1361       C  0.61983130  0.49491324  0.09227301    -0.04000
C1362       C  0.64896202  0.50008194  0.08382757    -0.00200
C1363       C  0.67129794  0.50168111  0.10496221    -0.02800
C1364       C  0.62868962  0.48859042  0.17353644     0.36500
C1365       C  0.65587108  0.50420908  0.05337001     0.40100
C1366       C  0.58318925  0.48887217  0.13115465     0.39200
C1367       C  0.70099168  0.50772245  0.09612333     0.36100
C1368       C  0.70477835  0.45004884  0.14596947     0.36800
C1369       C  0.71842335  0.55683828  0.20951956     0.40100
N1370       N  0.55916547  0.48700279  0.13847838    -0.38000
N1371       N  0.62325387  0.48522363  0.19783770    -0.39600
N1372       N  0.66131624  0.50759671  0.02906548    -0.37300
N1373       N  0.72470532  0.51255216  0.08913139    -0.39700
N1374       N  0.65552348  0.56968133  0.16558168    -0.39500
N1375       N  0.72127687  0.57830022  0.22262131    -0.37100
N1376       N  0.76961318  0.43853288  0.18774454    -0.38200
N1377       N  0.70195710  0.42847649  0.13303486    -0.39800
loop_ 
_geom_bond_atom_site_label_1 
_geom_bond_atom_site_label_2 
_geom_bond_distance 
_geom_bond_site_symmetry_2 
_ccdc_geom_bond_type 
C1           N19   1.352       .  A
C1           C38   1.463       .  S
C1         C1165   1.496       .  S
N2           N19   1.326       .  A
N2           N24   1.321       .  A
N2          Co39   2.096       .  S
C3           N28   1.347       .  A
C3           C41   1.472       .  S
C3           H48   1.081       .  S
H4           C45   1.081       .  S
C5           N29   1.341       .  A
C5            C9   1.462       .  S
C5           H34   1.081       .  S
Co6          N24   2.092       .  S
Co6          N14   2.107       .  S
Co6          N46   2.099   1_554  S
Co6          N22   2.089   1_554  S
Co6         Cl50   2.459       .  S
N7           C45   1.344       .  A
N7           N14   1.322       .  A
N7           Co8   2.098       .  S
Co8          N11   2.114       .  S
Co8          N28   2.112   1_554  S
Co8          N15   2.101   1_554  S
Co8         Cl50   2.464       .  S
C9           N47   1.357       .  A
C9         C1186   1.504       .  S
N10          N17   1.320       .  A
N10          N40   1.328       .  A
N10         Co43   2.108       .  S
N11          N29   1.321       .  A
N11          N47   1.330       .  A
N12          C41   1.350       .  A
N12          N22   1.326       .  A
H13          C38   1.081       .  S
N14          N35   1.329       .  A
N15          N33   1.323       .  A
N15          N20   1.329       .  A
C16          N20   1.352       .  A
C16          C44   1.463       .  S
C16        C1214   1.495       .  S
N17          C32   1.344       .  A
N17         Co39   2.094       .  S
C18          N46   1.344       .  A
C18          C21   1.460       .  S
C18          H52   1.080       .  S
C21          N42   1.350       .  A
C21        C1270   1.487       .  S
N22          N28   1.321       .  A
N23          C49   1.344       .  A
N23          N25   1.320       .  A
N23         Co39   2.096   1_556  S
N24          C38   1.343       .  A
N25          N53   1.327       .  A
N25         Co43   2.096   1_556  S
H26          C49   1.081       .  S
H27          C44   1.082       .  S
N29         Co43   2.086       .  S
N30          N42   1.327       .  A
N30          N46   1.322       .  A
N30         Co39   2.092   1_556  S
C31          N35   1.354       .  A
C31          C45   1.460       .  S
C31        C1361   1.494       .  S
C32          C51   1.467       .  S
C32          H36   1.081       .  S
N33          C44   1.344       .  A
N33         Co43   2.103   1_556  S
C37          N53   1.354       .  A
C37          C49   1.465       .  S
C37        C1298   1.501       .  S
Co39        Cl50   2.463       .  S
N40          C51   1.356       .  A
C41        C1242   1.504       .  S
Co43        Cl50   2.457       .  S
C51        C1326   1.509       .  S
C54        C1333   1.505       .  S
C54          C55   1.417       .  A
C54          C59   1.408       .  A
C55          H60   1.083       .  S
C55          C56   1.414       .  A
C56        C1102   1.501       .  S
C56          C57   1.402       .  A
C57          H61   1.084       .  S
C57          C58   1.399       .  A
C58        C1137   1.502       .  S
C58          C59   1.406       .  A
C59          H62   1.084       .  S
C63        C1354   1.497       .  S
C63          C64   1.400       .  A
C63          C68   1.417       .  A
C64          H69   1.084       .  S
C64          C65   1.398       .  A
C65        C1081   1.495       .  S
C65          C66   1.401       .  A
C66          H70   1.084       .  S
C66          C67   1.403       .  A
C67        C1046   1.498       .  S
C67          C68   1.417       .  A
C68          H71   1.083       .  S
C72         C997   1.498       .  S
C72          C73   1.404       .  A
C72          C77   1.415       .  A
C73          H78   1.084       .  S
C73          C74   1.400       .  A
C74        C1018   1.491       .  S
C74          C75   1.398       .  A
C75          H79   1.085       .  S
C75          C76   1.401       .  A
C76        C1305   1.491       .  S
C76          C77   1.413       .  A
C77          H80   1.083       .  S
C81         C934   1.491       .  S
C81          C82   1.402       .  A
C81          C86   1.411       .  A
C82          H87   1.084       .  S
C82          C83   1.400       .  A
C83         C962   1.494       .  S
C83          C84   1.400       .  A
C84          H88   1.084       .  S
C84          C85   1.406       .  A
C85        C1249   1.498       .  S
C85          C86   1.413       .  A
C86          H89   1.083       .  S
N90          C95   1.351       .  A
N90          C94   1.352   1_455  A
N90         H122   1.040       .  S
N91          C98   1.353   1_554  A
N91          C99   1.352       .  A
N92          C97   1.351       .  A
N92          C96   1.350   1_455  A
N92         H123   1.039       .  S
N93         C100   1.354   1_554  A
N93         C101   1.354       .  A
C94         C102   1.388       .  A
C94         C110   1.419       .  A
C95         C111   1.418       .  A
C95         C103   1.387       .  A
C96         C104   1.386       .  A
C96         C113   1.416       .  A
C97         C112   1.416       .  A
C97         C105   1.388       .  A
C98         C110   1.417       .  A
C98         C106   1.386       .  A
C99         C113   1.417       .  A
C99         C107   1.387       .  A
C100        C108   1.387       .  A
C100        C111   1.419       .  A
C101        C109   1.386       .  A
C101        C112   1.420       .  A
C102        H114   1.081       .  S
C102        C103   1.376   1_655  A
C103        H115   1.082       .  S
C104        H116   1.082       .  S
C104        C105   1.377   1_655  A
C105        H117   1.081       .  S
C106        H118   1.082       .  S
C106        C107   1.367   1_556  A
C107        H119   1.082       .  S
C108        H120   1.082       .  S
C108        C109   1.367   1_556  A
C109        H121   1.082       .  S
C110        C969   1.498       .  S
C111       C1025   1.501       .  S
C112       C1130   1.500       .  S
C113       C1074   1.495       .  S
C124        N142   1.354       .  A
C124        C161   1.458       .  S
C124       C1109   1.493       .  S
N125        N142   1.330       .  A
N125        N147   1.321       .  A
N125       Co162   2.110       .  S
C126        N151   1.339       .  A
C126        C164   1.461       .  S
C126        H171   1.081       .  S
H127        C168   1.081       .  S
C128        N152   1.343       .  A
C128        C132   1.463       .  S
C128        H157   1.081       .  S
Co129       N147   2.089       .  S
Co129       N137   2.090       .  S
Co129       N169   2.091   1_455  S
Co129       N145   2.095   1_455  S
Co129      Cl173   2.461       .  S
N130        C168   1.342       .  A
N130        N137   1.320       .  A
N130       Co131   2.093       .  S
Co131       N134   2.102       .  S
Co131       N151   2.090   1_455  S
Co131       N138   2.092   1_455  S
Co131      Cl173   2.454       .  S
C132        N170   1.356       .  A
C132        C990   1.502       .  S
N133        N140   1.321       .  A
N133        N163   1.328       .  A
N133       Co166   2.097       .  S
N134        N152   1.320       .  A
N134        N170   1.328       .  A
N135        C164   1.354       .  A
N135        N145   1.328       .  A
H136        C161   1.080       .  S
N137        N158   1.326       .  A
N138        N156   1.320       .  A
N138        N143   1.325       .  A
C139        N143   1.352       .  A
C139        C167   1.468       .  S
C139        C941   1.502       .  S
N140        C155   1.341       .  A
N140       Co162   2.096       .  S
C141        N169   1.342       .  A
C141        C144   1.457       .  S
C141        H175   1.081       .  S
C144        N165   1.353       .  A
C144       C1053   1.490       .  S
N145        N151   1.321       .  A
N146        C172   1.348       .  A
N146        N148   1.321       .  A
N146       Co162   2.108   1_655  S
N147        C161   1.342       .  A
N148        N176   1.325       .  A
N148       Co166   2.092   1_655  S
H149        C172   1.081       .  S
H150        C167   1.081       .  S
N152       Co166   2.093       .  S
N153        N165   1.329       .  A
N153        N169   1.322       .  A
N153       Co162   2.104   1_655  S
C154        N158   1.351       .  A
C154        C168   1.466       .  S
C154        C906   1.498       .  S
C155        C174   1.462       .  S
C155        H159   1.081       .  S
N156        C167   1.346       .  A
N156       Co166   2.101   1_655  S
C160        N176   1.351       .  A
C160        C172   1.469       .  S
C160        C822   1.503       .  S
Co162      Cl173   2.461       .  S
N163        C174   1.353       .  A
C164        C850   1.497       .  S
Co166      Cl173   2.459       .  S
C174        C878   1.497       .  S
C177        C773   1.493       .  S
C177        C178   1.414       .  A
C177        C182   1.401       .  A
C178        H183   1.083       .  S
C178        C179   1.414       .  A
C179       C1193   1.497       .  S
C179        C180   1.402       .  A
C180        H184   1.084       .  S
C180        C181   1.402       .  A
C181        C801   1.493       .  S
C181        C182   1.398       .  A
C182        H185   1.084       .  S
C186       C1158   1.489       .  S
C186        C187   1.398       .  A
C186        C191   1.411       .  A
C187        H192   1.085       .  S
C187        C188   1.397       .  A
C188        C738   1.489       .  S
C188        C189   1.399       .  A
C189        H193   1.084       .  S
C189        C190   1.404       .  A
C190        C717   1.492       .  S
C190        C191   1.413       .  A
C191        H194   1.083       .  S
C195        C654   1.492       .  S
C195        C196   1.402       .  A
C195        C200   1.412       .  A
C196        H201   1.085       .  S
C196        C197   1.401       .  A
C197        C682   1.489       .  S
C197        C198   1.396       .  A
C198        H202   1.085       .  S
C198        C199   1.400       .  A
C199       C1277   1.488       .  S
C199        C200   1.412       .  A
C200        H203   1.083       .  S
C204        C605   1.495       .  S
C204        C205   1.413       .  A
C204        C209   1.402       .  A
C205        H210   1.083       .  S
C205        C206   1.414       .  A
C206       C1221   1.498       .  S
C206        C207   1.402       .  A
C207        H211   1.084       .  S
C207        C208   1.405       .  A
C208        C626   1.501       .  S
C208        C209   1.402       .  A
C209        H212   1.084       .  S
N213        C218   1.352       .  A
N213        C217   1.352   1_556  A
N213        H245   1.039       .  S
N214        C221   1.349   1_565  A
N214        C222   1.350       .  A
N215        C220   1.354   1_554  A
N215        C219   1.356       .  A
N215        H246   1.035       .  S
N216        C223   1.352   1_565  A
N216        C224   1.349       .  A
C217        C225   1.386       .  A
C217        C233   1.411       .  A
C218        C234   1.412       .  A
C218        C226   1.387       .  A
C219        C227   1.387       .  A
C219        C236   1.420       .  A
C220        C235   1.419       .  A
C220        C228   1.388       .  A
C221        C233   1.410       .  A
C221        C229   1.385       .  A
C222        C236   1.412       .  A
C222        C230   1.388       .  A
C223        C231   1.384   1_545  A
C223        C234   1.411       .  A
C224        C232   1.389       .  A
C224        C235   1.415       .  A
C225        H237   1.082       .  S
C225        C226   1.373   1_554  A
C226        H238   1.082       .  S
C227        H239   1.082       .  S
C227        C228   1.374   1_554  A
C228        H240   1.082       .  S
C229        H241   1.082       .  S
C229        C230   1.369   1_545  A
C230        H242   1.080       .  S
C231        H243   1.082   1_565  S
C231        C232   1.371       .  A
C232        H244   1.081       .  S
C233        C745   1.491       .  S
C234        C689   1.496       .  S
C235        C633   1.493       .  S
C236        C794   1.497       .  S
C247        C913   1.481       .  S
C247        C248   1.404       .  A
C247        C252   1.402       .  A
C248        H253   1.083       .  S
C248        C249   1.406       .  A
C249        C542   1.488       .  S
C249        C250   1.403       .  A
C250        H254   1.084       .  S
C250        C251   1.403       .  A
C251        C577   1.498       .  S
C251        C252   1.402       .  A
C252        H255   1.084       .  S
C256        C486   1.493       .  S
C256        C257   1.411       .  A
C256        C261   1.402       .  A
C257        H262   1.083       .  S
C257        C258   1.413       .  A
C258        C829   1.497       .  S
C258        C259   1.404       .  A
C259        H263   1.084       .  S
C259        C260   1.404       .  A
C260        C514   1.503       .  S
C260        C261   1.404       .  A
C261        H264   1.084       .  S
C265        C885   1.489       .  S
C265        C266   1.403       .  A
C265        C270   1.411       .  A
C266        H271   1.084       .  S
C266        C267   1.401       .  A
C267        C465   1.495       .  S
C267        C268   1.400       .  A
C268        H272   1.084       .  S
C268        C269   1.400       .  A
C269        C430   1.490       .  S
C269        C270   1.411       .  A
C270        H273   1.083       .  S
C274        C374   1.491       .  S
C274        C275   1.401       .  A
C274        C279   1.409       .  A
C275        H280   1.084       .  S
C275        C276   1.402       .  A
C276        C402   1.496       .  S
C276        C277   1.403       .  A
C277        H281   1.084       .  S
C277        C278   1.405       .  A
C278        C857   1.492       .  S
C278        C279   1.410       .  A
C279        H282   1.083       .  S
N283        C288   1.355       .  A
N283        C287   1.355   1_565  A
N283        H315   1.036       .  S
N284        C291   1.352   1_455  A
N284        C292   1.352       .  A
N285        C290   1.355       .  A
N285        C289   1.355   1_565  A
N285        H316   1.036       .  S
N286        C293   1.351   1_455  A
N286        C294   1.351       .  A
C287        C295   1.387       .  A
C287        C303   1.420       .  A
C288        C304   1.419       .  A
C288        C296   1.387       .  A
C289        C297   1.387       .  A
C289        C306   1.419       .  A
C290        C305   1.421       .  A
C290        C298   1.389       .  A
C291        C303   1.415       .  A
C291        C299   1.387       .  A
C292        C306   1.414       .  A
C292        C300   1.385       .  A
C293        C301   1.385       .  A
C293        C304   1.413       .  A
C294        C302   1.388       .  A
C294        C305   1.415       .  A
C295        H307   1.082       .  S
C295        C296   1.372   1_545  A
C296        H308   1.082       .  S
C297        H309   1.082       .  S
C297        C298   1.371   1_545  A
C298        H310   1.082       .  S
C299        H311   1.081       .  S
C299        C300   1.370   1_655  A
C300        H312   1.082       .  S
C301        H313   1.083       .  S
C301        C302   1.369   1_655  A
C302        H314   1.081       .  S
C303        C521   1.499       .  S
C304        C409   1.498       .  S
C305        C570   1.497       .  S
C306        C458   1.500       .  S
C317        N335   1.347       .  A
C317        C354   1.463       .  S
C317        C766   1.485       .  S
N318        N335   1.324       .  A
N318        N340   1.322       .  A
N318       Co355   2.085       .  S
C319        N344   1.341       .  A
C319        C357   1.461       .  S
C319        H364   1.081       .  S
H320        C361   1.082       .  S
C321        N345   1.342       .  A
C321        C325   1.463       .  S
C321        H350   1.081       .  S
Co322       N340   2.102       .  S
Co322       N330   2.101       .  S
Co322       N362   2.095   1_565  S
Co322       N338   2.105   1_565  S
Co322      Cl366   2.463       .  S
N323        C361   1.339       .  A
N323        N330   1.320       .  A
N323       Co324   2.088       .  S
Co324       N327   2.094       .  S
Co324       N344   2.090   1_565  S
Co324       N331   2.096   1_565  S
Co324      Cl366   2.450       .  S
C325        N363   1.353       .  A
C325        C598   1.497       .  S
N326        N333   1.319       .  A
N326        N356   1.323       .  A
N326       Co359   2.076       .  S
N327        N345   1.320       .  A
N327        N363   1.329       .  A
N328        C357   1.355       .  A
N328        N338   1.329       .  A
H329        C354   1.081       .  S
N330        N351   1.330       .  A
N331        N349   1.320       .  A
N331        N336   1.327       .  A
C332        N336   1.351       .  A
C332        C360   1.458       .  S
C332        C661   1.487       .  S
N333        C348   1.343       .  A
N333       Co355   2.094       .  S
C334        N362   1.343       .  A
C334        C337   1.458       .  S
C334        H368   1.081       .  S
C337        N358   1.351       .  A
C337        C710   1.486       .  S
N338        N344   1.321       .  A
N339        C365   1.343       .  A
N339        N341   1.320       .  A
N339       Co355   2.091   1_545  S
N340        C354   1.346       .  A
N341        N369   1.328       .  A
N341       Co359   2.103   1_545  S
H342        C365   1.081       .  S
H343        C360   1.082       .  S
N345       Co359   2.096       .  S
N346        N358   1.327       .  A
N346        N362   1.322       .  A
N346       Co355   2.094   1_545  S
C347        N351   1.355       .  A
C347        C361   1.461       .  S
C347        C381   1.498       .  S
C348        C367   1.464       .  S
C348        H352   1.081       .  S
N349        C360   1.340       .  A
N349       Co359   2.080   1_545  S
C353        N369   1.355       .  A
C353        C365   1.462       .  S
C353        C437   1.498       .  S
Co355      Cl366   2.453       .  S
N356        C367   1.348       .  A
C357        C493   1.499       .  S
Co359      Cl366   2.457       .  S
C367        C549   1.490       .  S
C370        C371   1.413       .  A
C370        C375   1.413       .  A
C370        C388   1.450       .  S
C371        C376   1.506       .  S
C371        C372   1.413       .  A
C372        C373   1.414       .  A
C372        C377   1.450       .  S
C373        C374   1.413       .  A
C373        C389   1.451       .  S
C374        C375   1.412       .  A
C375        C378   1.450       .  S
C376        C379   1.412       .  A
C376        C383   1.412       .  A
C377        N394   1.157       .  T
C378        N396   1.157       .  T
C379        C380   1.412       .  A
C379        C384   1.452       .  S
C380        C381   1.418       .  A
C380        C386   1.451       .  S
C381        C382   1.416       .  A
C382        C383   1.418       .  A
C382        C385   1.449       .  S
C383        C387   1.450       .  S
C384        N391   1.157       .  T
C385        N392   1.157       .  T
C386        N390   1.157       .  T
C387        N393   1.157       .  T
C388        N397   1.157       .  T
C389        N395   1.157       .  T
C398        C399   1.409       .  A
C398        C403   1.407       .  A
C398        C416   1.452       .  S
C399        C404   1.496       .  S
C399        C400   1.410       .  A
C400        C401   1.414       .  A
C400        C405   1.450       .  S
C401        C402   1.418       .  A
C401        C417   1.451       .  S
C402        C403   1.418       .  A
C403        C406   1.452       .  S
C404        C407   1.412       .  A
C404        C411   1.412       .  A
C405        N422   1.157       .  T
C406        N424   1.157       .  T
C407        C408   1.413       .  A
C407        C412   1.449       .  S
C408        C409   1.413       .  A
C408        C414   1.449       .  S
C409        C410   1.414       .  A
C410        C411   1.406       .  A
C410        C413   1.452       .  S
C411        C415   1.452       .  S
C412        N419   1.157       .  T
C413        N420   1.157       .  T
C414        N418   1.157       .  T
C415        N421   1.157       .  T
C416        N425   1.157       .  T
C417        N423   1.157       .  T
C426        C427   1.413       .  A
C426        C431   1.415       .  A
C426        C444   1.449       .  S
C427        C432   1.504       .  S
C427        C428   1.412       .  A
C428        C429   1.412       .  A
C428        C433   1.450       .  S
C429        C430   1.413       .  A
C429        C445   1.451       .  S
C430        C431   1.411       .  A
C431        C434   1.450       .  S
C432        C435   1.412       .  A
C432        C439   1.409       .  A
C433        N450   1.157       .  T
C434        N452   1.157       .  T
C435        C436   1.415       .  A
C435        C440   1.451       .  S
C436        C437   1.416       .  A
C436        C442   1.451       .  S
C437        C438   1.417       .  A
C438        C439   1.414       .  A
C438        C441   1.447       .  S
C439        C443   1.451       .  S
C440        N447   1.157       .  T
C441        N448   1.156       .  T
C442        N446   1.157       .  T
C443        N449   1.157       .  T
C444        N453   1.157       .  T
C445        N451   1.157       .  T
C454        C455   1.411       .  A
C454        C459   1.407       .  A
C454        C472   1.452       .  S
C455        C460   1.496       .  S
C455        C456   1.412       .  A
C456        C457   1.412       .  A
C456        C461   1.450       .  S
C457        C458   1.413       .  A
C457        C473   1.450       .  S
C458        C459   1.415       .  A
C459        C462   1.451       .  S
C460        C463   1.410       .  A
C460        C467   1.411       .  A
C461        N478   1.157       .  T
C462        N480   1.157       .  T
C463        C464   1.412       .  A
C463        C468   1.451       .  S
C464        C465   1.418       .  A
C464        C470   1.451       .  S
C465        C466   1.417       .  A
C466        C467   1.408       .  A
C466        C469   1.451       .  S
C467        C471   1.452       .  S
C468        N475   1.157       .  T
C469        N476   1.157       .  T
C470        N474   1.158       .  T
C471        N477   1.157       .  T
C472        N481   1.157       .  T
C473        N479   1.157       .  T
C482        C483   1.414       .  A
C482        C487   1.416       .  A
C482        C500   1.450       .  S
C483        C488   1.509       .  S
C483        C484   1.414       .  A
C484        C485   1.413       .  A
C484        C489   1.450       .  S
C485        C486   1.413       .  A
C485        C501   1.451       .  S
C486        C487   1.412       .  A
C487        C490   1.449       .  S
C488        C491   1.414       .  A
C488        C495   1.413       .  A
C489        N506   1.157       .  T
C490        N508   1.157       .  T
C491        C492   1.414       .  A
C491        C496   1.452       .  S
C492        C493   1.417       .  A
C492        C498   1.451       .  S
C493        C494   1.416       .  A
C494        C495   1.417       .  A
C494        C497   1.448       .  S
C495        C499   1.450       .  S
C496        N503   1.157       .  T
C497        N504   1.157       .  T
C498        N502   1.157       .  T
C499        N505   1.157       .  T
C500        N509   1.157       .  T
C501        N507   1.157       .  T
C510        C511   1.412       .  A
C510        C515   1.413       .  A
C510        C528   1.451       .  S
C511        C516   1.503       .  S
C511        C512   1.412       .  A
C512        C513   1.410       .  A
C512        C517   1.452       .  S
C513        C514   1.421       .  A
C513        C529   1.452       .  S
C514        C515   1.419       .  A
C515        C518   1.451       .  S
C516        C519   1.415       .  A
C516        C523   1.415       .  A
C517        N534   1.157       .  T
C518        N536   1.157       .  T
C519        C520   1.408       .  A
C519        C524   1.452       .  S
C520        C521   1.413       .  A
C520        C526   1.452       .  S
C521        C522   1.412       .  A
C522        C523   1.413       .  A
C522        C525   1.450       .  S
C523        C527   1.450       .  S
C524        N531   1.157       .  T
C525        N532   1.157       .  T
C526        N530   1.157       .  T
C527        N533   1.157       .  T
C528        N537   1.157       .  T
C529        N535   1.158       .  T
C538        C539   1.410       .  A
C538        C543   1.411       .  A
C538        C556   1.450       .  S
C539        C544   1.494       .  S
C539        C540   1.410       .  A
C540        C541   1.409       .  A
C540        C545   1.451       .  S
C541        C542   1.413       .  A
C541        C557   1.451       .  S
C542        C543   1.414       .  A
C543        C546   1.450       .  S
C544        C547   1.408       .  A
C544        C551   1.410       .  A
C545        N562   1.157       .  T
C546        N564   1.157       .  T
C547        C548   1.412       .  A
C547        C552   1.450       .  S
C548        C549   1.416       .  A
C548        C554   1.449       .  S
C549        C550   1.418       .  A
C550        C551   1.410       .  A
C550        C553   1.452       .  S
C551        C555   1.452       .  S
C552        N559   1.157       .  T
C553        N560   1.158       .  T
C554        N558   1.157       .  T
C555        N561   1.157       .  T
C556        N565   1.157       .  T
C557        N563   1.157       .  T
C566        C567   1.415       .  A
C566        C571   1.412       .  A
C566        C584   1.450       .  S
C567        C572   1.500       .  S
C567        C568   1.414       .  A
C568        C569   1.404       .  A
C568        C573   1.452       .  S
C569        C570   1.413       .  A
C569        C585   1.452       .  S
C570        C571   1.413       .  A
C571        C574   1.450       .  S
C572        C575   1.412       .  A
C572        C579   1.412       .  A
C573        N590   1.157       .  T
C574        N592   1.157       .  T
C575        C576   1.408       .  A
C575        C580   1.453       .  S
C576        C577   1.419       .  A
C576        C582   1.451       .  S
C577        C578   1.419       .  A
C578        C579   1.411       .  A
C578        C581   1.452       .  S
C579        C583   1.451       .  S
C580        N587   1.157       .  T
C581        N588   1.157       .  T
C582        N586   1.157       .  T
C583        N589   1.157       .  T
C584        N593   1.157       .  T
C585        N591   1.157       .  T
C594        C595   1.412       .  A
C594        C599   1.412       .  A
C594        C612   1.451       .  S
C595        C600   1.507       .  S
C595        C596   1.413       .  A
C596        C597   1.419       .  A
C596        C601   1.449       .  S
C597        C598   1.417       .  A
C597        C613   1.451       .  S
C598        C599   1.415       .  A
C599        C602   1.451       .  S
C600        C603   1.413       .  A
C600        C607   1.412       .  A
C601        N618   1.157       .  T
C602        N620   1.157       .  T
C603        C604   1.417       .  A
C603        C608   1.449       .  S
C604        C605   1.412       .  A
C604        C610   1.449       .  S
C605        C606   1.415       .  A
C606        C607   1.414       .  A
C606        C609   1.451       .  S
C607        C611   1.450       .  S
C608        N615   1.157       .  T
C609        N616   1.157       .  T
C610        N614   1.157       .  T
C611        N617   1.157       .  T
C612        N621   1.157       .  T
C613        N619   1.158       .  T
C622        C623   1.409       .  A
C622        C627   1.409       .  A
C622        C640   1.453       .  S
C623        C628   1.496       .  S
C623        C624   1.409       .  A
C624        C625   1.410       .  A
C624        C629   1.451       .  S
C625        C626   1.419       .  A
C625        C641   1.451       .  S
C626        C627   1.422       .  A
C627        C630   1.451       .  S
C628        C631   1.413       .  A
C628        C635   1.413       .  A
C629        N646   1.157       .  T
C630        N648   1.157       .  T
C631        C632   1.411       .  A
C631        C636   1.449       .  S
C632        C633   1.411       .  A
C632        C638   1.450       .  S
C633        C634   1.413       .  A
C634        C635   1.405       .  A
C634        C637   1.452       .  S
C635        C639   1.453       .  S
C636        N643   1.157       .  T
C637        N644   1.157       .  T
C638        N642   1.157       .  T
C639        N645   1.157       .  T
C640        N649   1.157       .  T
C641        N647   1.157       .  T
C650        C651   1.413       .  A
C650        C655   1.413       .  A
C650        C668   1.451       .  S
C651        C656   1.504       .  S
C651        C652   1.412       .  A
C652        C653   1.414       .  A
C652        C657   1.449       .  S
C653        C654   1.412       .  A
C653        C669   1.449       .  S
C654        C655   1.414       .  A
C655        C658   1.450       .  S
C656        C659   1.413       .  A
C656        C663   1.413       .  A
C657        N674   1.157       .  T
C658        N676   1.157       .  T
C659        C660   1.415       .  A
C659        C664   1.449       .  S
C660        C661   1.413       .  A
C660        C666   1.451       .  S
C661        C662   1.413       .  A
C662        C663   1.410       .  A
C662        C665   1.451       .  S
C663        C667   1.451       .  S
C664        N671   1.157       .  T
C665        N672   1.157       .  T
C666        N670   1.158       .  T
C667        N673   1.157       .  T
C668        N677   1.157       .  T
C669        N675   1.157       .  T
C678        C679   1.411       .  A
C678        C683   1.409       .  A
C678        C696   1.452       .  S
C679        C684   1.492       .  S
C679        C680   1.409       .  A
C680        C681   1.408       .  A
C680        C685   1.450       .  S
C681        C682   1.415       .  A
C681        C697   1.451       .  S
C682        C683   1.416       .  A
C683        C686   1.451       .  S
C684        C687   1.410       .  A
C684        C691   1.410       .  A
C685        N702   1.157       .  T
C686        N704   1.157       .  T
C687        C688   1.410       .  A
C687        C692   1.450       .  S
C688        C689   1.414       .  A
C688        C694   1.451       .  S
C689        C690   1.414       .  A
C690        C691   1.407       .  A
C690        C693   1.451       .  S
C691        C695   1.451       .  S
C692        N699   1.157       .  T
C693        N700   1.157   1_545  T
C694        N698   1.157       .  T
C695        N701   1.157       .  T
C696        N705   1.157       .  T
C697        N703   1.157       .  T
C706        C707   1.415       .  A
C706        C711   1.412       .  A
C706        C724   1.451       .  S
C707        C712   1.506       .  S
C707        C708   1.414       .  A
C708        C709   1.415       .  A
C708        C713   1.449       .  S
C709        C710   1.412       .  A
C709        C725   1.450       .  S
C710        C711   1.410       .  A
C711        C714   1.450       .  S
C712        C715   1.413       .  A
C712        C719   1.414       .  A
C713        N730   1.157       .  T
C714        N732   1.157       .  T
C715        C716   1.413       .  A
C715        C720   1.451       .  S
C716        C717   1.413       .  A
C716        C722   1.450       .  S
C717        C718   1.411       .  A
C718        C719   1.415       .  A
C718        C721   1.449       .  S
C719        C723   1.449       .  S
C720        N727   1.157       .  T
C721        N728   1.157       .  T
C722        N726   1.157       .  T
C723        N729   1.157       .  T
C724        N733   1.157       .  T
C725        N731   1.157       .  T
C734        C735   1.409       .  A
C734        C739   1.410       .  A
C734        C752   1.451       .  S
C735        C740   1.489       .  S
C735        C736   1.409       .  A
C736        C737   1.405       .  A
C736        C741   1.452       .  S
C737        C738   1.416       .  A
C737        C753   1.452       .  S
C738        C739   1.416       .  A
C739        C742   1.450       .  S
C740        C743   1.411       .  A
C740        C747   1.410       .  A
C741        N758   1.157       .  T
C742        N760   1.157       .  T
C743        C744   1.408       .  A
C743        C748   1.450       .  S
C744        C745   1.412       .  A
C744        C750   1.451       .  S
C745        C746   1.414       .  A
C746        C747   1.405       .  A
C746        C749   1.452       .  S
C747        C751   1.451       .  S
C748        N755   1.157       .  T
C749        N756   1.157       .  T
C750        N754   1.157       .  T
C751        N757   1.157       .  T
C752        N761   1.157       .  T
C753        N759   1.157       .  T
C762        C763   1.414       .  A
C762        C767   1.411       .  A
C762        C780   1.451       .  S
C763        C768   1.505       .  S
C763        C764   1.413       .  A
C764        C765   1.416       .  A
C764        C769   1.449       .  S
C765        C766   1.412       .  A
C765        C781   1.450       .  S
C766        C767   1.410       .  A
C767        C770   1.451       .  S
C768        C771   1.413       .  A
C768        C775   1.413       .  A
C769        N786   1.157       .  T
C770        N788   1.157       .  T
C771        C772   1.413       .  A
C771        C776   1.450       .  S
C772        C773   1.413       .  A
C772        C778   1.450       .  S
C773        C774   1.414       .  A
C774        C775   1.416       .  A
C774        C777   1.450       .  S
C775        C779   1.450       .  S
C776        N783   1.157       .  T
C777        N784   1.157       .  T
C778        N782   1.157       .  T
C779        N785   1.157       .  T
C780        N789   1.157       .  T
C781        N787   1.157       .  T
C790        C791   1.413       .  A
C790        C795   1.407       .  A
C790        C808   1.452       .  S
C791        C796   1.499       .  S
C791        C792   1.414       .  A
C792        C793   1.411       .  A
C792        C797   1.450       .  S
C793        C794   1.412       .  A
C793        C809   1.450       .  S
C794        C795   1.415       .  A
C795        C798   1.452       .  S
C796        C799   1.413       .  A
C796        C803   1.412       .  A
C797        N814   1.157       .  T
C798        N816   1.157       .  T
C799        C800   1.411       .  A
C799        C804   1.451       .  S
C800        C801   1.418       .  A
C800        C806   1.452       .  S
C801        C802   1.414       .  A
C802        C803   1.408       .  A
C802        C805   1.451       .  S
C803        C807   1.451       .  S
C804        N811   1.157       .  T
C805        N812   1.157       .  T
C806        N810   1.158       .  T
C807        N813   1.157       .  T
C808        N817   1.157       .  T
C809        N815   1.157       .  T
C818        C819   1.413       .  A
C818        C823   1.419       .  A
C818        C836   1.450       .  S
C819        C824   1.510       .  S
C819        C820   1.412       .  A
C820        C821   1.413       .  A
C820        C825   1.452       .  S
C821        C822   1.418       .  A
C821        C837   1.451       .  S
C822        C823   1.417       .  A
C823        C826   1.448       .  S
C824        C827   1.413       .  A
C824        C831   1.415       .  A
C825        N842   1.157       .  T
C826        N844   1.157       .  T
C827        C828   1.416       .  A
C827        C832   1.450       .  S
C828        C829   1.414       .  A
C828        C834   1.449       .  S
C829        C830   1.413       .  A
C830        C831   1.415       .  A
C830        C833   1.450       .  S
C831        C835   1.450       .  S
C832        N839   1.157       .  T
C833        N840   1.157       .  T
C834        N838   1.157       .  T
C835        N841   1.157       .  T
C836        N845   1.157       .  T
C837        N843   1.157       .  T
C846        C847   1.410       .  A
C846        C851   1.416       .  A
C846        C864   1.450       .  S
C847        C852   1.501       .  S
C847        C848   1.410       .  A
C848        C849   1.410       .  A
C848        C853   1.452       .  S
C849        C850   1.418       .  A
C849        C865   1.451       .  S
C850        C851   1.418       .  A
C851        C854   1.450       .  S
C852        C855   1.412       .  A
C852        C859   1.411       .  A
C853        N870   1.157       .  T
C854        N872   1.157       .  T
C855        C856   1.415       .  A
C855        C860   1.450       .  S
C856        C857   1.414       .  A
C856        C862   1.450       .  S
C857        C858   1.414       .  A
C858        C859   1.412       .  A
C858        C861   1.450       .  S
C859        C863   1.450       .  S
C860        N867   1.157       .  T
C861        N868   1.157       .  T
C862        N866   1.157       .  T
C863        N869   1.157       .  T
C864        N873   1.157       .  T
C865        N871   1.158       .  T
C874        C875   1.408       .  A
C874        C879   1.414       .  A
C874        C892   1.450       .  S
C875        C880   1.503       .  S
C875        C876   1.413       .  A
C876        C877   1.414       .  A
C876        C881   1.452       .  S
C877        C878   1.415       .  A
C877        C893   1.450       .  S
C878        C879   1.418       .  A
C879        C882   1.448       .  S
C880        C883   1.412       .  A
C880        C887   1.412       .  A
C881        N898   1.157       .  T
C882        N900   1.156       .  T
C883        C884   1.413       .  A
C883        C888   1.450       .  S
C884        C885   1.413       .  A
C884        C890   1.450       .  S
C885        C886   1.412       .  A
C886        C887   1.413       .  A
C886        C889   1.449       .  S
C887        C891   1.450       .  S
C888        N895   1.157       .  T
C889        N896   1.157       .  T
C890        N894   1.157       .  T
C891        N897   1.157       .  T
C892        N901   1.157       .  T
C893        N899   1.157       .  T
C902        C903   1.411       .  A
C902        C907   1.412       .  A
C902        C920   1.452       .  S
C903        C908   1.496       .  S
C903        C904   1.407       .  A
C904        C905   1.412       .  A
C904        C909   1.451       .  S
C905        C906   1.419       .  A
C905        C921   1.446       .  S
C906        C907   1.418       .  A
C907        C910   1.451       .  S
C908        C911   1.412       .  A
C908        C915   1.412       .  A
C909        N926   1.157       .  T
C910        N928   1.158       .  T
C911        C912   1.412       .  A
C911        C916   1.449       .  S
C912        C913   1.410       .  A
C912        C918   1.449       .  S
C913        C914   1.411       .  A
C914        C915   1.407       .  A
C914        C917   1.451       .  S
C915        C919   1.451       .  S
C916        N923   1.157       .  T
C917        N924   1.157       .  T
C918        N922   1.157       .  T
C919        N925   1.157       .  T
C920        N929   1.157       .  T
C921        N927   1.156       .  T
C930        C931   1.413       .  A
C930        C935   1.413       .  A
C930        C948   1.450       .  S
C931        C936   1.506       .  S
C931        C932   1.413       .  A
C932        C933   1.415       .  A
C932        C937   1.449       .  S
C933        C934   1.412       .  A
C933        C949   1.450       .  S
C934        C935   1.412       .  A
C935        C938   1.450       .  S
C936        C939   1.411       .  A
C936        C943   1.411       .  A
C937        N954   1.157       .  T
C938        N956   1.157       .  T
C939        C940   1.417       .  A
C939        C944   1.450       .  S
C940        C941   1.418       .  A
C940        C946   1.450       .  S
C941        C942   1.419       .  A
C942        C943   1.414       .  A
C942        C945   1.451       .  S
C943        C947   1.452       .  S
C944        N951   1.157       .  T
C945        N952   1.157       .  T
C946        N950   1.158       .  T
C947        N953   1.157       .  T
C948        N957   1.157       .  T
C949        N955   1.157       .  T
C958        C959   1.414       .  A
C958        C963   1.413       .  A
C958        C976   1.450       .  S
C959        C964   1.502       .  S
C959        C960   1.414       .  A
C960        C961   1.407       .  A
C960        C965   1.452       .  S
C961        C962   1.415       .  A
C961        C977   1.452       .  S
C962        C963   1.416       .  A
C963        C966   1.451       .  S
C964        C967   1.414       .  A
C964        C971   1.415       .  A
C965        N982   1.157       .  T
C966        N984   1.157       .  T
C967        C968   1.406       .  A
C967        C972   1.453       .  S
C968        C969   1.413       .  A
C968        C974   1.452       .  S
C969        C970   1.412       .  A
C970        C971   1.414       .  A
C970        C973   1.450       .  S
C971        C975   1.449       .  S
C972        N979   1.157       .  T
C973        N980   1.157       .  T
C974        N978   1.157       .  T
C975        N981   1.157       .  T
C976        N985   1.157       .  T
C977        N983   1.157       .  T
C986        C987   1.412       .  A
C986        C991   1.415       .  A
C986       C1004   1.451       .  S
C987        C992   1.508       .  S
C987        C988   1.411       .  A
C988        C989   1.418       .  A
C988        C993   1.450       .  S
C989        C990   1.419       .  A
C989       C1005   1.451       .  S
C990        C991   1.417       .  A
C991        C994   1.451       .  S
C992        C995   1.412       .  A
C992        C999   1.413       .  A
C993       N1010   1.157       .  T
C994       N1012   1.157       .  T
C995        C996   1.414       .  A
C995       C1000   1.450       .  S
C996        C997   1.416       .  A
C996       C1002   1.451       .  S
C997        C998   1.414       .  A
C998        C999   1.416       .  A
C998       C1001   1.450       .  S
C999       C1003   1.449       .  S
C1000      N1007   1.157       .  T
C1001      N1008   1.157       .  T
C1002      N1006   1.157       .  T
C1003      N1009   1.157       .  T
C1004      N1013   1.157       .  T
C1005      N1011   1.158       .  T
C1014      C1015   1.411       .  A
C1014      C1019   1.409       .  A
C1014      C1032   1.451       .  S
C1015      C1020   1.496       .  S
C1015      C1016   1.411       .  A
C1016      C1017   1.410       .  A
C1016      C1021   1.451       .  S
C1017      C1018   1.417       .  A
C1017      C1033   1.452       .  S
C1018      C1019   1.415       .  A
C1019      C1022   1.451       .  S
C1020      C1023   1.411       .  A
C1020      C1027   1.411       .  A
C1021      N1038   1.157       .  T
C1022      N1040   1.157       .  T
C1023      C1024   1.408       .  A
C1023      C1028   1.451       .  S
C1024      C1025   1.417       .  A
C1024      C1030   1.452       .  S
C1025      C1026   1.414       .  A
C1026      C1027   1.411       .  A
C1026      C1029   1.450       .  S
C1027      C1031   1.450       .  S
C1028      N1035   1.157       .  T
C1029      N1036   1.157       .  T
C1030      N1034   1.157       .  T
C1031      N1037   1.157       .  T
C1032      N1041   1.157       .  T
C1033      N1039   1.157       .  T
C1042      C1043   1.412       .  A
C1042      C1047   1.415       .  A
C1042      C1060   1.450       .  S
C1043      C1048   1.508       .  S
C1043      C1044   1.414       .  A
C1044      C1045   1.417       .  A
C1044      C1049   1.449       .  S
C1045      C1046   1.412       .  A
C1045      C1061   1.449       .  S
C1046      C1047   1.416       .  A
C1047      C1050   1.450       .  S
C1048      C1051   1.413       .  A
C1048      C1055   1.414       .  A
C1049      N1066   1.157       .  T
C1050      N1068   1.157       .  T
C1051      C1052   1.415       .  A
C1051      C1056   1.448       .  S
C1052      C1053   1.411       .  A
C1052      C1058   1.450       .  S
C1053      C1054   1.413       .  A
C1054      C1055   1.416       .  A
C1054      C1057   1.450       .  S
C1055      C1059   1.451       .  S
C1056      N1063   1.157       .  T
C1057      N1064   1.157       .  T
C1058      N1062   1.157       .  T
C1059      N1065   1.157       .  T
C1060      N1069   1.157       .  T
C1061      N1067   1.157       .  T
C1070      C1071   1.411       .  A
C1070      C1075   1.404       .  A
C1070      C1088   1.452       .  S
C1071      C1076   1.494       .  S
C1071      C1072   1.412       .  A
C1072      C1073   1.412       .  A
C1072      C1077   1.450       .  S
C1073      C1074   1.413       .  A
C1073      C1089   1.450       .  S
C1074      C1075   1.414       .  A
C1075      C1078   1.453       .  S
C1076      C1079   1.409       .  A
C1076      C1083   1.410       .  A
C1077      N1094   1.157       .  T
C1078      N1096   1.157       .  T
C1079      C1080   1.410       .  A
C1079      C1084   1.451       .  S
C1080      C1081   1.418       .  A
C1080      C1086   1.450       .  S
C1081      C1082   1.418       .  A
C1082      C1083   1.407       .  A
C1082      C1085   1.452       .  S
C1083      C1087   1.452       .  S
C1084      N1091   1.157       .  T
C1085      N1092   1.157       .  T
C1086      N1090   1.157       .  T
C1087      N1093   1.157       .  T
C1088      N1097   1.157       .  T
C1089      N1095   1.157       .  T
C1098      C1099   1.414       .  A
C1098      C1103   1.417       .  A
C1098      C1116   1.450       .  S
C1099      C1104   1.509       .  S
C1099      C1100   1.412       .  A
C1100      C1101   1.413       .  A
C1100      C1105   1.450       .  S
C1101      C1102   1.416       .  A
C1101      C1117   1.451       .  S
C1102      C1103   1.414       .  A
C1103      C1106   1.449       .  S
C1104      C1107   1.413       .  A
C1104      C1111   1.415       .  A
C1105      N1122   1.157       .  T
C1106      N1124   1.157       .  T
C1107      C1108   1.416       .  A
C1107      C1112   1.450       .  S
C1108      C1109   1.414       .  A
C1108      C1114   1.449       .  S
C1109      C1110   1.412       .  A
C1110      C1111   1.415       .  A
C1110      C1113   1.450       .  S
C1111      C1115   1.451       .  S
C1112      N1119   1.157       .  T
C1113      N1120   1.157       .  T
C1114      N1118   1.158       .  T
C1115      N1121   1.157       .  T
C1116      N1125   1.157       .  T
C1117      N1123   1.157       .  T
C1126      C1127   1.417       .  A
C1126      C1131   1.416       .  A
C1126      C1144   1.450       .  S
C1127      C1132   1.505       .  S
C1127      C1128   1.414       .  A
C1128      C1129   1.405       .  A
C1128      C1133   1.452       .  S
C1129      C1130   1.414       .  A
C1129      C1145   1.453       .  S
C1130      C1131   1.412       .  A
C1131      C1134   1.449       .  S
C1132      C1135   1.413       .  A
C1132      C1139   1.414       .  A
C1133      N1150   1.157       .  T
C1134      N1152   1.157       .  T
C1135      C1136   1.410       .  A
C1135      C1140   1.452       .  S
C1136      C1137   1.419       .  A
C1136      C1142   1.452       .  S
C1137      C1138   1.418       .  A
C1138      C1139   1.413       .  A
C1138      C1141   1.451       .  S
C1139      C1143   1.450       .  S
C1140      N1147   1.157       .  T
C1141      N1148   1.157       .  T
C1142      N1146   1.157       .  T
C1143      N1149   1.157       .  T
C1144      N1153   1.157       .  T
C1145      N1151   1.157       .  T
C1154      C1155   1.413       .  A
C1154      C1159   1.414       .  A
C1154      C1172   1.450       .  S
C1155      C1160   1.503       .  S
C1155      C1156   1.412       .  A
C1156      C1157   1.412       .  A
C1156      C1161   1.450       .  S
C1157      C1158   1.412       .  A
C1157      C1173   1.450       .  S
C1158      C1159   1.413       .  A
C1159      C1162   1.450       .  S
C1160      C1163   1.413       .  A
C1160      C1167   1.409       .  A
C1161      N1178   1.157       .  T
C1162      N1180   1.157       .  T
C1163      C1164   1.414       .  A
C1163      C1168   1.451       .  S
C1164      C1165   1.416       .  A
C1164      C1170   1.451       .  S
C1165      C1166   1.416       .  A
C1166      C1167   1.414       .  A
C1166      C1169   1.447       .  S
C1167      C1171   1.450       .  S
C1168      N1175   1.157       .  T
C1169      N1176   1.156       .  T
C1170      N1174   1.157       .  T
C1171      N1177   1.157       .  T
C1172      N1181   1.157       .  T
C1173      N1179   1.157       .  T
C1182      C1183   1.414       .  A
C1182      C1187   1.416       .  A
C1182      C1200   1.452       .  S
C1183      C1188   1.512       .  S
C1183      C1184   1.413       .  A
C1184      C1185   1.418       .  A
C1184      C1189   1.450       .  S
C1185      C1186   1.417       .  A
C1185      C1201   1.449       .  S
C1186      C1187   1.419       .  A
C1187      C1190   1.451       .  S
C1188      C1191   1.415       .  A
C1188      C1195   1.414       .  A
C1189      N1206   1.157       .  T
C1190      N1208   1.158       .  T
C1191      C1192   1.417       .  A
C1191      C1196   1.450       .  S
C1192      C1193   1.414       .  A
C1192      C1198   1.450       .  S
C1193      C1194   1.413       .  A
C1194      C1195   1.415       .  A
C1194      C1197   1.450       .  S
C1195      C1199   1.450       .  S
C1196      N1203   1.157       .  T
C1197      N1204   1.157       .  T
C1198      N1202   1.157       .  T
C1199      N1205   1.157       .  T
C1200      N1209   1.157       .  T
C1201      N1207   1.157       .  T
C1210      C1211   1.414       .  A
C1210      C1215   1.418       .  A
C1210      C1228   1.449       .  S
C1211      C1216   1.512       .  S
C1211      C1212   1.415       .  A
C1212      C1213   1.416       .  A
C1212      C1217   1.450       .  S
C1213      C1214   1.413       .  A
C1213      C1229   1.451       .  S
C1214      C1215   1.413       .  A
C1215      C1218   1.450       .  S
C1216      C1219   1.414       .  A
C1216      C1223   1.415       .  A
C1217      N1234   1.157       .  T
C1218      N1236   1.157       .  T
C1219      C1220   1.417       .  A
C1219      C1224   1.450       .  S
C1220      C1221   1.414       .  A
C1220      C1226   1.450       .  S
C1221      C1222   1.413       .  A
C1222      C1223   1.417       .  A
C1222      C1225   1.450       .  S
C1223      C1227   1.449       .  S
C1224      N1231   1.157       .  T
C1225      N1232   1.157       .  T
C1226      N1230   1.157       .  T
C1227      N1233   1.157       .  T
C1228      N1237   1.157       .  T
C1229      N1235   1.157       .  T
C1238      C1239   1.413       .  A
C1238      C1243   1.416       .  A
C1238      C1256   1.451       .  S
C1239      C1244   1.506       .  S
C1239      C1240   1.408       .  A
C1240      C1241   1.416       .  A
C1240      C1245   1.451       .  S
C1241      C1242   1.420       .  A
C1241      C1257   1.448       .  S
C1242      C1243   1.418       .  A
C1243      C1246   1.450       .  S
C1244      C1247   1.411       .  A
C1244      C1251   1.413       .  A
C1245      N1262   1.157       .  T
C1246      N1264   1.157       .  T
C1247      C1248   1.413       .  A
C1247      C1252   1.450       .  S
C1248      C1249   1.415       .  A
C1248      C1254   1.451       .  S
C1249      C1250   1.414       .  A
C1250      C1251   1.416       .  A
C1250      C1253   1.449       .  S
C1251      C1255   1.449       .  S
C1252      N1259   1.157       .  T
C1253      N1260   1.157       .  T
C1254      N1258   1.157       .  T
C1255      N1261   1.157       .  T
C1256      N1265   1.157       .  T
C1257      N1263   1.156       .  T
C1266      C1267   1.412       .  A
C1266      C1271   1.415       .  A
C1266      C1284   1.449       .  S
C1267      C1272   1.504       .  S
C1267      C1268   1.414       .  A
C1268      C1269   1.412       .  A
C1268      C1273   1.451       .  S
C1269      C1270   1.411       .  A
C1269      C1285   1.451       .  S
C1270      C1271   1.413       .  A
C1271      C1274   1.450       .  S
C1272      C1275   1.413       .  A
C1272      C1279   1.412       .  A
C1273      N1290   1.157       .  T
C1274      N1292   1.157       .  T
C1275      C1276   1.414       .  A
C1275      C1280   1.450       .  S
C1276      C1277   1.412       .  A
C1276      C1282   1.450       .  S
C1277      C1278   1.413       .  A
C1278      C1279   1.412       .  A
C1278      C1281   1.451       .  S
C1279      C1283   1.450       .  S
C1280      N1287   1.157       .  T
C1281      N1288   1.157       .  T
C1282      N1286   1.157       .  T
C1283      N1289   1.157       .  T
C1284      N1293   1.157       .  T
C1285      N1291   1.157       .  T
C1294      C1295   1.412       .  A
C1294      C1299   1.414       .  A
C1294      C1312   1.452       .  S
C1295      C1300   1.506       .  S
C1295      C1296   1.411       .  A
C1296      C1297   1.417       .  A
C1296      C1301   1.450       .  S
C1297      C1298   1.418       .  A
C1297      C1313   1.450       .  S
C1298      C1299   1.419       .  A
C1299      C1302   1.451       .  S
C1300      C1303   1.413       .  A
C1300      C1307   1.413       .  A
C1301      N1318   1.157       .  T
C1302      N1320   1.158       .  T
C1303      C1304   1.414       .  A
C1303      C1308   1.450       .  S
C1304      C1305   1.412       .  A
C1304      C1310   1.449       .  S
C1305      C1306   1.413       .  A
C1306      C1307   1.415       .  A
C1306      C1309   1.450       .  S
C1307      C1311   1.449       .  S
C1308      N1315   1.157       .  T
C1309      N1316   1.157       .  T
C1310      N1314   1.157       .  T
C1311      N1317   1.157       .  T
C1312      N1321   1.157       .  T
C1313      N1319   1.157       .  T
C1322      C1323   1.411       .  A
C1322      C1327   1.420       .  A
C1322      C1340   1.450       .  S
C1323      C1328   1.512       .  S
C1323      C1324   1.412       .  A
C1324      C1325   1.416       .  A
C1324      C1329   1.451       .  S
C1325      C1326   1.420       .  A
C1325      C1341   1.450       .  S
C1326      C1327   1.421       .  A
C1327      C1330   1.451       .  S
C1328      C1331   1.413       .  A
C1328      C1335   1.413       .  A
C1329      N1346   1.157       .  T
C1330      N1348   1.158       .  T
C1331      C1332   1.418       .  A
C1331      C1336   1.449       .  S
C1332      C1333   1.416       .  A
C1332      C1338   1.450       .  S
C1333      C1334   1.417       .  A
C1334      C1335   1.417       .  A
C1334      C1337   1.450       .  S
C1335      C1339   1.450       .  S
C1336      N1343   1.157       .  T
C1337      N1344   1.157       .  T
C1338      N1342   1.157       .  T
C1339      N1345   1.157       .  T
C1340      N1349   1.157       .  T
C1341      N1347   1.157       .  T
C1350      C1351   1.415       .  A
C1350      C1355   1.418       .  A
C1350      C1368   1.450       .  S
C1351      C1356   1.512       .  S
C1351      C1352   1.414       .  A
C1352      C1353   1.415       .  A
C1352      C1357   1.450       .  S
C1353      C1354   1.413       .  A
C1353      C1369   1.450       .  S
C1354      C1355   1.414       .  A
C1355      C1358   1.450       .  S
C1356      C1359   1.413       .  A
C1356      C1363   1.416       .  A
C1357      N1374   1.157       .  T
C1358      N1376   1.157       .  T
C1359      C1360   1.416       .  A
C1359      C1364   1.449       .  S
C1360      C1361   1.412       .  A
C1360      C1366   1.449       .  S
C1361      C1362   1.414       .  A
C1362      C1363   1.418       .  A
C1362      C1365   1.451       .  S
C1363      C1367   1.450       .  S
C1364      N1371   1.157       .  T
C1365      N1372   1.157       .  T
C1366      N1370   1.157       .  T
C1367      N1373   1.157       .  T
C1368      N1377   1.157       .  T
C1369      N1375   1.157       .  T
