geometry optimzed in LAMMPS
_audit_creation_date              2020-11-30 
_audit_creation_method            'lammps2cif' 
_symmetry_space_group_name_H-M    'P1' 
_symmetry_Int_Tables_number       1 
_symmetry_cell_setting            triclinic 
loop_ 
_symmetry_equiv_pos_as_xyz 
  x,y,z 
_cell_length_a                    45.40341876 
_cell_length_b                    45.357208144420525 
_cell_length_c                    45.74499791869143 
_cell_angle_alpha                 90.1905224216752 
_cell_angle_beta                  90.04168625793683 
_cell_angle_gamma                 90.04884851082178 
loop_ 
_atom_site_label 
_atom_site_type_symbol 
_atom_site_fract_x 
_atom_site_fract_y 
_atom_site_fract_z 
_atom_site_charge 
C1          C  0.49678955  0.40212858  0.06934466     0.44000
N2          N  0.48074875  0.42767238  0.03298712     0.02900
C3          C  0.56071557  0.52118712  0.94303476    -0.05000
H4          H  0.56826291  0.54459177  0.05479984     0.08400
C5          C  0.46056199  0.56524047  0.05569838    -0.05300
Co6        Co  0.52993856  0.45503249  0.99823616     0.74200
N7          N  0.54897372  0.50982229  0.02927868    -0.24500
Co8        Co  0.52279369  0.53104452  0.99835373     0.74100
C9          C  0.48739533  0.57793630  0.06875655     0.44100
N10         N  0.42767465  0.49895070  0.03462420     0.02500
N11         N  0.49889081  0.55164773  0.03122600     0.02600
N12         N  0.56579258  0.47158888  0.94314060    -0.45400
H13         H  0.54509683  0.41285683  0.05761615     0.08400
N14         N  0.55178204  0.48089417  0.02947032     0.02900
N15         N  0.49601879  0.55139502  0.96728915     0.02600
C16         C  0.48075520  0.57770195  0.93112664     0.44200
N17         N  0.42968689  0.46988058  0.03459365    -0.24000
C18         C  0.51682673  0.41644953  0.94303295    -0.04900
N19         N  0.47215257  0.41113798  0.05530779    -0.45100
N20         N  0.50499754  0.56843245  0.94558843    -0.45300
C21         C  0.49066339  0.40352127  0.92946353     0.44000
N22         N  0.54920105  0.48074369  0.96526473     0.02900
N23         N  0.42776790  0.46912068  0.97062700    -0.24000
N24         N  0.50969079  0.43017046  0.03133907    -0.24500
N25         N  0.42517309  0.49808813  0.97027843     0.02500
H26         H  0.40969815  0.43446811  0.94399058     0.08400
H27         H  0.43212637  0.56723323  0.94246439     0.08400
N28         N  0.54607629  0.50963879  0.96563159    -0.24500
N29         N  0.46998595  0.54934291  0.03265779    -0.24200
N30         N  0.47802625  0.42719001  0.96840366     0.02900
C31         C  0.57978996  0.49588999  0.06460767     0.44300
C32         C  0.41354732  0.45939657  0.05697722    -0.05400
N33         N  0.46711719  0.54887489  0.96839618    -0.24200
H34         H  0.43779433  0.56752252  0.06212800     0.08400
N35         N  0.57007596  0.47168346  0.05009622    -0.45400
H36         H  0.41041438  0.43637934  0.06224293     0.08400
C37         C  0.39882060  0.48320422  0.93381225     0.44100
C38         C  0.52175611  0.41473566  0.05333396    -0.04900
Co39       Co  0.45361532  0.44782411  0.00178679     0.73800
N40         N  0.41111796  0.50917823  0.05624341    -0.45100
C41         C  0.57356203  0.49593598  0.92788887     0.44400
N42         N  0.46748532  0.41089920  0.94658585    -0.45100
Co43       Co  0.44690529  0.52425258  0.00151419     0.73900
C44         C  0.45543673  0.56472235  0.94646638    -0.05400
C45         C  0.56581606  0.52129319  0.05055046    -0.05000
N46         N  0.50688061  0.43055305  0.96691122    -0.24500
N47         N  0.51003235  0.56849588  0.05211382    -0.45300
H48         H  0.56275166  0.54447546  0.93852316     0.08400
C49         C  0.41182697  0.45773189  0.94861719    -0.05400
Cl50       Cl  0.48826934  0.48947939  0.00007496    -0.48400
C51         C  0.40148778  0.48561456  0.07145401     0.44100
H52         H  0.53959634  0.41514594  0.93624854     0.08400
N53         N  0.40803891  0.50737360  0.94871124    -0.45100
C54         C  0.23550828  0.52534963  0.21199920     0.81800
N55         N  0.22372838  0.51134324  0.23588051    -0.76500
C56         C  0.19566514  0.51826615  0.24480298     0.84200
N57         N  0.17985176  0.53848876  0.22957285    -0.76500
C58         C  0.19140517  0.55225323  0.20602978     0.84300
N59         N  0.21902895  0.54548203  0.19758582    -0.78200
C60         C  0.75361130  0.50665704  0.19932974     0.81800
N61         N  0.76226574  0.49400191  0.22502221    -0.76500
C62         C  0.78981053  0.49986766  0.23573120     0.84200
N63         N  0.80800498  0.51831279  0.22092958    -0.76500
C64         C  0.79929370  0.53113306  0.19573783     0.84300
N65         N  0.77220647  0.52503423  0.18511569    -0.78200
C66         C  0.19720364  0.51067023  0.75660850     0.81800
N67         N  0.22425855  0.49966092  0.76432977    -0.76500
C68         C  0.23447212  0.50410095  0.79225322     0.84200
N69         N  0.21763421  0.51888243  0.81186515    -0.76500
C70         C  0.19092479  0.52962729  0.80445637     0.84300
N71         N  0.18100489  0.52534337  0.77690949    -0.78200
C72         C  0.78516759  0.50911337  0.76412660     0.81800
N73         N  0.75635434  0.50664615  0.77227716    -0.76500
C74         C  0.74759876  0.51739066  0.79880060     0.84200
N75         N  0.76776815  0.53035742  0.81660597    -0.76500
C76         C  0.79634933  0.53306102  0.80868522     0.84300
N77         N  0.80481538  0.52232850  0.78231694    -0.78200
N78         N  0.99636323  0.60859146  0.96430238    -0.35100
N79         N  0.94958890  0.62023535  0.00682214    -0.55600
N80         N  0.99495240  0.62208648  0.05146901    -0.35100
N81         N  0.04169885  0.61541570  0.00848035    -0.55600
C82         C  0.97307051  0.61365389  0.94664434     0.28500
C83         C  0.02086320  0.61052775  0.94766161     0.28500
C84         C  0.97099350  0.63126879  0.06633126     0.28500
C85         C  0.01876930  0.63041154  0.06710790     0.28500
C86         C  0.93351371  0.61045380  0.98392497     0.37100
C87         C  0.93282734  0.61608885  0.03086032     0.37100
C88         C  0.05784425  0.60323798  0.98681048     0.37100
C89         C  0.05707362  0.61144325  0.03341518     0.37100
C90         C  0.98281009  0.61903172  0.91844995    -0.20400
C91         C  0.01305538  0.61721515  0.91911509    -0.20400
C92         C  0.97955688  0.64581738  0.09162284    -0.20400
C93         C  0.00986046  0.64540919  0.09205704    -0.20400
C94         C  0.90610872  0.60089449  0.99327340    -0.21400
C95         C  0.90576832  0.60419800  0.02310867    -0.21400
C96         C  0.08381533  0.59178840  0.99794829    -0.21400
C97         C  0.08334650  0.59703575  0.02755463    -0.21400
C98         C  0.94332374  0.61004635  0.95470078    -0.16800
C99         C  0.04963364  0.60333027  0.95703722    -0.15300
C100        C  0.04787352  0.62145130  0.06118864    -0.16800
C101        C  0.94190318  0.62300133  0.05960561    -0.16800
H102        H  0.96943865  0.62301781  0.89926658     0.16100
H103        H  0.02758842  0.61960389  0.90052330     0.16100
H104        H  0.96537688  0.65477865  0.10845800     0.16100
H105        H  0.02373485  0.65404482  0.10933487     0.16100
H106        H  0.88847217  0.59184355  0.98007025     0.14400
H107        H  0.88777088  0.59815397  0.03736859     0.14400
H108        H  0.10117048  0.58065641  0.98606024     0.14400
H109        H  0.10026408  0.59072889  0.04299073     0.14400
H110        H  0.99538517  0.60147279  0.98565030     0.27700
H111        H  0.99490233  0.60823518  0.03353277     0.27700
C112        C  0.05356946  0.48846591  0.41028071     0.44000
N113        N  0.01819413  0.47320859  0.43827236     0.02900
C114        C  0.92724825  0.55652770  0.52849456    -0.05000
H115        H  0.04239691  0.56374607  0.55125739     0.08400
C116        C  0.03835477  0.45644357  0.57881727    -0.05300
Co117      Co  0.98373772  0.52372249  0.46411678     0.74200
N118        N  0.01543419  0.54434274  0.51782069    -0.24500
Co119      Co  0.98395313  0.51949857  0.54020681     0.74100
C120        C  0.05189012  0.48293834  0.59144303     0.44100
N121        N  0.01819250  0.42246015  0.51152039     0.02500
N122        N  0.01688812  0.49556816  0.56210620     0.02600
N123        N  0.92772357  0.55971208  0.47921121    -0.45400
H124        H  0.04148716  0.53710894  0.41980307     0.08400
N125        N  0.01535309  0.54619319  0.48904994     0.02900
N126        N  0.95233508  0.49427584  0.56187948     0.02600
C127        C  0.91724650  0.48097288  0.59076090     0.44200
N128        N  0.01826092  0.42343143  0.48262874    -0.24000
C129        C  0.93032107  0.51002205  0.42300945    -0.04900
N130        N  0.03958621  0.46409928  0.42053853    -0.45100
N131        N  0.93181018  0.50445917  0.57980459    -0.45300
C132        C  0.91696900  0.48341843  0.41020904     0.44000
N133        N  0.95041287  0.54406604  0.48900999     0.02900
N134        N  0.95407301  0.42276593  0.48215257    -0.24000
N135        N  0.01687326  0.50226126  0.44006485    -0.24500
N136        N  0.95384206  0.42178694  0.51100697     0.02500
H137        H  0.92798951  0.40086506  0.44918902     0.08400
H138        H  0.92704788  0.43166379  0.58199892     0.08400
N139        N  0.95071551  0.54211851  0.51780952    -0.24500
N140        N  0.01706803  0.46647236  0.56093471    -0.24200
N141        N  0.95336492  0.47122581  0.43804030     0.02900
C142        C  0.05160128  0.57394307  0.50247519     0.44300
C143        C  0.03946305  0.40528596  0.47266816    -0.05400
N144        N  0.95266211  0.46525434  0.56039303    -0.24200
H145        H  0.04329800  0.43349627  0.58285796     0.08400
N146        N  0.03648074  0.56364775  0.47904601    -0.45400
H147        H  0.04404906  0.40066821  0.44991490     0.08400
C148        C  0.91846301  0.39283577  0.49822390     0.44100
C149        C  0.03820410  0.51379262  0.42327514    -0.04900
Co150      Co  0.98611003  0.44724113  0.45975849     0.73800
N151        N  0.03852148  0.40445302  0.52205976    -0.45100
C152        C  0.91182756  0.56806522  0.50291074     0.44400
N153        N  0.93272966  0.46036320  0.42052195    -0.45100
Co154      Co  0.98546599  0.44357670  0.53618626     0.73900
C155        C  0.93120934  0.45474013  0.57784035    -0.05400
C156        C  0.03745982  0.56104092  0.52831824    -0.05000
N157        N  0.95246513  0.50023495  0.43982705    -0.24500
N158        N  0.03730561  0.50626474  0.58003256    -0.45300
H159        H  0.92202543  0.55907073  0.55141752     0.08400
C160        C  0.93242459  0.40520820  0.47201677    -0.05400
Cl161      Cl  0.98501225  0.48346598  0.50001567    -0.48400
C162        C  0.05302276  0.39284697  0.49896607     0.44100
H163        H  0.92516138  0.53300228  0.41970077     0.08400
N164        N  0.93316971  0.40413700  0.52134023    -0.45100
C165        C  0.51886100  0.78722317  0.23693736     0.81800
N166        N  0.53706798  0.80405862  0.22038858    -0.76500
C167        C  0.54902351  0.79355321  0.19529900     0.84200
N168        N  0.54202107  0.76587663  0.18656530    -0.76500
C169        C  0.52395061  0.74859290  0.20272872     0.84300
N170        N  0.51216941  0.75925509  0.22806104    -0.78200
C171        C  0.50293734  0.23406737  0.20851411     0.81800
N172        N  0.49651812  0.22408766  0.23604378    -0.76500
C173        C  0.50238496  0.19533550  0.24295434     0.84200
N174        N  0.51425470  0.17732567  0.22245565    -0.76500
C175        C  0.52066824  0.18697101  0.19528989     0.84300
N176        N  0.51495060  0.21543423  0.18850971    -0.78200
C177        C  0.50185753  0.23776953  0.78522712     0.81800
N178        N  0.51203792  0.21726098  0.80409895    -0.76500
C179        C  0.51143490  0.18823838  0.79755246     0.84200
N180        N  0.50074210  0.17965315  0.77128698    -0.76500
C181        C  0.49066872  0.19958804  0.75161413     0.84300
N182        N  0.49090629  0.22902298  0.75862344    -0.78200
C183        C  0.50217359  0.77809359  0.75064724     0.81800
N184        N  0.49274435  0.75178104  0.76168517    -0.76500
C185        C  0.49900406  0.74491460  0.79008229     0.84200
N186        N  0.51403905  0.76440655  0.80700882    -0.76500
C187        C  0.52341575  0.79049459  0.79608899     0.84300
N188        N  0.51734663  0.79710266  0.76791969    -0.78200
N189        N  0.60160165  0.03708216  0.99491286    -0.35100
N190        N  0.59962512  0.99119521  0.95023301    -0.55600
N191        N  0.61236243  0.94594574  0.99309580    -0.35100
N192        N  0.61171403  0.99178402  0.03813067    -0.55600
C193        C  0.58810754  0.05122662  0.97269168     0.28500
C194        C  0.59413281  0.05146497  0.01974461     0.28500
C195        C  0.60239161  0.92946177  0.97041957     0.28500
C196        C  0.60874824  0.92973051  0.01759371     0.28500
C197        C  0.59835766  0.01526477  0.93306734     0.37100
C198        C  0.60365150  0.96801864  0.93214047     0.37100
C199        C  0.61464814  0.01587229  0.05530232     0.37100
C200        C  0.62041106  0.96858586  0.05433613     0.37100
C201        C  0.57256306  0.07524821  0.98335695    -0.20400
C202        C  0.57621392  0.07530804  0.01308578    -0.20400
C203        C  0.59319522  0.90217732  0.98049560    -0.20400
C204        C  0.59718917  0.90234165  0.01027396    -0.20400
C205        C  0.60175684  0.00743532  0.90395833    -0.21400
C206        C  0.60512008  0.97739806  0.90336746    -0.21400
C207        C  0.62555963  0.00803670  0.08247157    -0.21400
C208        C  0.62916677  0.97798405  0.08188360    -0.21400
C209        C  0.58974430  0.04332387  0.94296199    -0.16800
C210        C  0.60315378  0.04380639  0.04825457    -0.16800
C211        C  0.61552833  0.93894050  0.04639249    -0.16800
C212        C  0.60134291  0.93839036  0.94087773    -0.16800
H213        H  0.55953350  0.09088037  0.97106916     0.16100
H214        H  0.56640373  0.09098102  0.02806387     0.16100
H215        H  0.58410272  0.88416364  0.96779318     0.16100
H216        H  0.59178701  0.88442605  0.02489802     0.16100
H217        H  0.60064359  0.02172349  0.88508322     0.14400
H218        H  0.60713145  0.96385602  0.88394224     0.14400
H219        H  0.62914905  0.02230498  0.10115395     0.14400
H220        H  0.63606106  0.96440982  0.10006072     0.14400
H221        H  0.61579448  0.01919110  0.99306431     0.27700
H222        H  0.62165959  0.96686162  0.99188956     0.27700
C223        C  0.18783681  0.74264795  0.51816612     0.81800
N224        N  0.21551895  0.75391698  0.51378795    -0.76500
C225        C  0.22389795  0.77918021  0.52810408     0.84200
N226        N  0.20445169  0.79226656  0.54649420    -0.76500
C227        C  0.17732643  0.78108824  0.55122422     0.84300
N228        N  0.16907745  0.75631301  0.53691680    -0.78200
C229        C  0.75713146  0.17532692  0.51767492     0.81800
N230        N  0.77313729  0.15709640  0.53496050    -0.76500
C231        C  0.79893168  0.16584772  0.54714556     0.84200
N232        N  0.80895630  0.19346568  0.54143263    -0.76500
C233        C  0.79326740  0.21212014  0.52419276     0.84300
N234        N  0.76719809  0.20309881  0.51231306    -0.78200
C235        C  0.17695488  0.21188500  0.52899949     0.81800
N236        N  0.20389701  0.20264413  0.51898236    -0.76500
C237        C  0.21168752  0.17355499  0.52138377     0.84200
N238        N  0.19235876  0.15431618  0.53358648    -0.76500
C239        C  0.16566911  0.16314227  0.54337829     0.84300
N240        N  0.15823649  0.19193091  0.54107047    -0.78200
C241        C  0.73907281  0.77407676  0.54134582     0.81800
N242        N  0.74886698  0.74771807  0.53019645    -0.76500
C243        C  0.77364493  0.73496920  0.54173844     0.84200
N244        N  0.78800897  0.74867717  0.56395229    -0.76500
C245        C  0.77854716  0.77460288  0.57516665     0.84300
N246        N  0.75422202  0.78720277  0.56348364    -0.78200
N247        N  0.93380351  0.96222933  0.65880686    -0.35100
N248        N  0.97998706  0.91740671  0.65922249    -0.55600
N249        N  0.02556713  0.96133464  0.64953700    -0.35100
N250        N  0.97945845  0.00549311  0.64656862    -0.55600
C251        C  0.91802260  0.93727251  0.65453879     0.28500
C252        C  0.91778318  0.98474597  0.64767126     0.28500
C253        C  0.03999242  0.93618164  0.64263235     0.28500
C254        C  0.03962213  0.98365341  0.63575421     0.28500
C255        C  0.95671944  0.90093082  0.66759035     0.37100
C256        C  0.00411564  0.90047678  0.66311067     0.37100
C257        C  0.95615766  0.02337015  0.65101292     0.37100
C258        C  0.00345307  0.02305345  0.64619172     0.37100
C259        C  0.89132026  0.94416484  0.64143955    -0.20400
C260        C  0.89120637  0.97411351  0.63706424    -0.20400
C261        C  0.06383794  0.94272166  0.62478992    -0.20400
C262        C  0.06362829  0.97270741  0.62051515    -0.20400
C263        C  0.96608617  0.87350083  0.67705931    -0.21400
C264        C  0.99619318  0.87325298  0.67433757    -0.21400
C265        C  0.96540486  0.05237503  0.65384504    -0.21400
C266        C  0.99545769  0.05217836  0.65071890    -0.21400
C267        C  0.92716619  0.90840305  0.66181697    -0.16800
C268        C  0.92673069  0.01457041  0.64659363    -0.16800
C269        C  0.03144175  0.01365948  0.63686922    -0.16800
C270        C  0.03227236  0.90753437  0.65215091    -0.16800
H271        H  0.87392276  0.92913035  0.63506324     0.16100
H272        H  0.87374313  0.98651125  0.62671256     0.16100
H273        H  0.07955623  0.92746522  0.61541549     0.16100
H274        H  0.07916014  0.98497672  0.60735212     0.16100
H275        H  0.95248669  0.85515649  0.68387233     0.14400
H276        H  0.01047411  0.85467193  0.67866523     0.14400
H277        H  0.95171541  0.07175938  0.65625435     0.14400
H278        H  0.00964855  0.07136267  0.65035892     0.14400
H279        H  0.95414186  0.96381912  0.66904570     0.27700
H280        H  0.00771049  0.96324975  0.66348443     0.27700
C281        C  0.49064908  0.91421183  0.41203674     0.44000
N282        N  0.47566767  0.95127882  0.43777580     0.02900
C283        C  0.56075406  0.04467712  0.52436341    -0.05000
H284        H  0.56476753  0.93161589  0.55325524     0.08400
C285        C  0.45670696  0.93570152  0.57543221    -0.05300
Co286      Co  0.52615826  0.98610030  0.46279311     0.74200
N287        N  0.54590852  0.95693575  0.51814001    -0.24500
Co288      Co  0.52069421  0.99002701  0.53846564     0.74100
C289        C  0.48268116  0.92302185  0.58940614     0.44100
N290        N  0.42390332  0.95319499  0.50915967     0.02500
N291        N  0.49613209  0.95816172  0.56092562     0.02600
N292        N  0.56401722  0.04098107  0.47526036    -0.45400
H293        H  0.53936070  0.92594821  0.42199013     0.08400
N294        N  0.54826131  0.95525032  0.48940150     0.02900
N295        N  0.49435032  0.02281264  0.55799045     0.02600
C296        C  0.47843506  0.05930333  0.58412778     0.44200
N297        N  0.42564686  0.95212754  0.48038224    -0.24000
C298        C  0.51310161  0.03943740  0.42118429    -0.04900
N299        N  0.46646528  0.92911502  0.42111109    -0.45100
N300        N  0.50304776  0.04505949  0.57491460    -0.45300
C301        C  0.48682251  0.05255148  0.40801652     0.44000
N302        N  0.54669307  0.02019909  0.48619310     0.02900
N303        N  0.42432116  0.01690907  0.47790204    -0.24000
N304        N  0.50463398  0.95224106  0.44003457    -0.24500
N305        N  0.42251833  0.01801456  0.50666004     0.02500
H306        H  0.40485489  0.04305276  0.44380604     0.08400
H307        H  0.43008737  0.04642941  0.57432746     0.08400
N308        N  0.54452876  0.02173949  0.51492059    -0.24500
N309        N  0.46719403  0.95716654  0.55830664    -0.24200
N310        N  0.47405993  0.01590579  0.43489722     0.02900
C311        C  0.57518949  0.91937434  0.50533728     0.44300
C312        C  0.40945580  0.92920214  0.47074729    -0.05400
N313        N  0.46540884  0.02127827  0.55575901    -0.24200
H314        H  0.43365834  0.93058569  0.57847452     0.08400
N315        N  0.56574882  0.93332345  0.48086030    -0.45400
H316        H  0.40656913  0.92308413  0.44806736     0.08400
C317        C  0.39502785  0.05402190  0.49239053     0.44100
C318        C  0.51605884  0.92981619  0.42461775    -0.04900
Co319      Co  0.44952177  0.98400643  0.45720196     0.73800
N320        N  0.40707632  0.93194097  0.51998765    -0.45100
C321        C  0.57367553  0.05767847  0.49790098     0.44400
N322        N  0.46350268  0.03664971  0.41737771    -0.45100
Co323      Co  0.44436300  0.98735203  0.53276827     0.73900
C324        C  0.45346498  0.04321515  0.57145152    -0.05400
C325        C  0.56206324  0.93526066  0.53006893    -0.05000
N326        N  0.50305520  0.01688432  0.43733733    -0.24500
N327        N  0.50630638  0.93819508  0.57948288    -0.45300
H328        H  0.56392924  0.05052458  0.54706116     0.08400
C329        C  0.40769171  0.03876071  0.46684450    -0.05400
Cl330      Cl  0.48521409  0.98685955  0.49780830    -0.48400
C331        C  0.39712423  0.91566282  0.49715209     0.44100
H332        H  0.53597774  0.04553317  0.41857439     0.08400
N333        N  0.40528965  0.03958583  0.51610063    -0.45100
C334        C  0.66127390  0.79807530  0.52092977     0.14200
C335        C  0.66567294  0.82825709  0.51467619     0.01200
C336        C  0.69471488  0.83909524  0.51422813     0.16100
C337        C  0.71854387  0.82071684  0.52098690     0.25600
C338        C  0.71414630  0.79089448  0.52832813    -0.40800
C339        C  0.68532022  0.77954603  0.52759373     0.32600
C340        C  0.64034725  0.84914843  0.51059681     0.01200
F341        F  0.69996168  0.86806756  0.50894219    -0.13100
F342        F  0.68025308  0.75107509  0.53513739    -0.13600
C343        C  0.61927382  0.85304793  0.53283266     0.16200
C344        C  0.59765825  0.87514517  0.53072403     0.25600
C345        C  0.59657031  0.89414658  0.50635155    -0.40700
C346        C  0.61686141  0.88934099  0.48349486     0.32500
C347        C  0.63849055  0.86721582  0.48564491     0.14200
F348        F  0.62037425  0.83627282  0.55733581    -0.13100
F349        F  0.61660249  0.90682048  0.45947144    -0.13600
F350        F  0.57775619  0.87780658  0.55268464    -0.15900
F351        F  0.65801037  0.86372375  0.46343350    -0.14400
F352        F  0.63362459  0.78668875  0.52124922    -0.14400
F353        F  0.74608609  0.83243317  0.52141098    -0.15900
C354        C  0.86015733  0.85871722  0.66642757     0.14200
C355        C  0.86242828  0.84338387  0.63977687     0.01200
C356        C  0.88715645  0.84775785  0.62189786     0.16100
C357        C  0.90888417  0.86786845  0.63003865     0.25600
C358        C  0.90621952  0.88396168  0.65616870    -0.40800
C359        C  0.88202466  0.87895051  0.67461918     0.32600
C360        C  0.83827369  0.82449226  0.62900712     0.01200
F361        F  0.88939608  0.83373019  0.59571565    -0.13100
F362        F  0.87919548  0.89434604  0.69995264    -0.13600
C363        C  0.81181818  0.83727629  0.61961873     0.16200
C364        C  0.79130439  0.82061928  0.60379493     0.25600
C365        C  0.79710493  0.79079988  0.59682010    -0.40700
C366        C  0.82274793  0.77758942  0.60847272     0.32500
C367        C  0.84315580  0.79438657  0.62419750     0.14200
F368        F  0.80684346  0.86649544  0.62389083    -0.13100
F369        F  0.82893020  0.74869152  0.60369261    -0.13600
F370        F  0.76666913  0.83434255  0.59396918    -0.15900
F371        F  0.86847956  0.78158705  0.63355886    -0.14400
F372        F  0.83651343  0.85452086  0.68407564    -0.14400
F373        F  0.93177443  0.87293667  0.61161781    -0.15900
C374        C  0.34103149  0.11064625  0.52317478     0.14200
C375        C  0.32484536  0.11862417  0.49827165     0.01200
C376        C  0.33353747  0.10740800  0.47094360     0.16100
C377        C  0.35717784  0.08758876  0.46862437     0.25600
C378        C  0.37241360  0.07805742  0.49379077    -0.40800
C379        C  0.36452210  0.09063312  0.52101601     0.32600
C380        C  0.29627795  0.13447111  0.50137193     0.01200
F381        F  0.31823776  0.11476259  0.44652974    -0.13100
F382        F  0.37889921  0.08291731  0.54587523    -0.13600
C383        C  0.29463790  0.16466544  0.50853266     0.16200
C384        C  0.26708967  0.17827650  0.51338086     0.25600
C385        C  0.24081540  0.16172140  0.51148055    -0.40700
C386        C  0.24281814  0.13183436  0.50289030     0.32500
C387        C  0.27008917  0.11844294  0.49817898     0.14200
F388        F  0.31969168  0.18078325  0.51128497    -0.13100
F389        F  0.21823709  0.11515940  0.49935139    -0.13600
F390        F  0.26627591  0.20715307  0.52120208    -0.15900
F391        F  0.27097999  0.08924567  0.49154082    -0.14400
F392        F  0.33295787  0.12088351  0.54991771    -0.14400
F393        F  0.36407042  0.07689996  0.44179002    -0.15900
C394        C  0.12745458  0.09078088  0.56110728     0.14200
C395        C  0.10693567  0.09969802  0.58221015     0.01200
C396        C  0.10496659  0.12956876  0.58992919     0.16100
C397        C  0.12365498  0.15033802  0.57700798     0.25600
C398        C  0.14491735  0.14144186  0.55631057    -0.40800
C399        C  0.14635267  0.11138916  0.54832202     0.32600
C400        C  0.08765411  0.07775379  0.59629679     0.01200
F401        F  0.08487604  0.13857489  0.61002490    -0.13100
F402        F  0.16567752  0.10188367  0.52774971    -0.13600
C403        C  0.09384314  0.06787355  0.62472767     0.16200
C404        C  0.07570167  0.04684022  0.63799927     0.25600
C405        C  0.05101065  0.03581475  0.62308822    -0.40700
C406        C  0.04474766  0.04583994  0.59471194     0.32500
C407        C  0.06309296  0.06652644  0.58131037     0.14200
F408        F  0.11760214  0.07845191  0.63943852    -0.13100
F409        F  0.02089592  0.03540983  0.58001797    -0.13600
F410        F  0.08203173  0.03735198  0.66539944    -0.15900
F411        F  0.05683076  0.07578921  0.55380567    -0.14400
F412        F  0.12935994  0.06198847  0.55310167    -0.14400
F413        F  0.12136580  0.17898337  0.58536779    -0.15900
C414        C  0.67558135  0.16687590  0.50148647     0.14200
C415        C  0.67418278  0.13677638  0.49376284     0.01200
C416        C  0.70065193  0.12126792  0.48953883     0.16100
C417        C  0.72775044  0.13476203  0.49520686     0.25600
C418        C  0.72909810  0.16408285  0.50525310    -0.40800
C419        C  0.70288672  0.18049954  0.50702608     0.32600
C420        C  0.64564882  0.12042601  0.49307323     0.01200
F421        F  0.70025927  0.09232737  0.48186564    -0.13100
F422        F  0.70351263  0.20902492  0.51608967    -0.13600
C423        C  0.63738606  0.10379003  0.46840910     0.16200
C424        C  0.61323374  0.08448697  0.46956497     0.25600
C425        C  0.59692395  0.08102980  0.49562577    -0.40700
C426        C  0.60415637  0.09921004  0.51969668     0.32500
C427        C  0.62824762  0.11857673  0.51842173     0.14200
F428        F  0.65328120  0.10563046  0.44334570    -0.13100
F429        F  0.58830883  0.09811384  0.54478207    -0.13600
F430        F  0.60663050  0.06838186  0.44536925    -0.15900
F431        F  0.63556827  0.13435378  0.54264406    -0.14400
F432        F  0.65045740  0.18276297  0.50464902    -0.14400
F433        F  0.75279182  0.11871894  0.49195131    -0.15900
C434        C  0.89435564  0.07045825  0.59457286     0.14200
C435        C  0.86943423  0.08031316  0.60987853     0.01200
C436        C  0.86264153  0.06775565  0.63716538     0.16100
C437        C  0.88103991  0.04615168  0.64925906     0.25600
C438        C  0.90628482  0.03682806  0.63410362    -0.40800
C439        C  0.91250728  0.04883318  0.60648802     0.32600
C440        C  0.85044035  0.10321956  0.59669425     0.01200
F441        F  0.83851014  0.07677159  0.65222945    -0.13100
F442        F  0.93622452  0.03940240  0.59098521    -0.13600
C443        C  0.82146880  0.09650604  0.58847879     0.16200
C444        C  0.80453416  0.11701668  0.57309786     0.25600
C445        C  0.81629961  0.14487224  0.56547574    -0.40700
C446        C  0.84515813  0.15182330  0.57483158     0.32500
C447        C  0.86198459  0.13116303  0.59019197     0.14200
F448        F  0.80994854  0.06951014  0.59427038    -0.13100
F449        F  0.85759914  0.17828161  0.56857464    -0.13600
F450        F  0.77675299  0.10914020  0.56532353    -0.15900
F451        F  0.88986355  0.13827300  0.59838937    -0.14400
F452        F  0.90081402  0.08146243  0.56775826    -0.14400
F453        F  0.87444116  0.03451899  0.67576390    -0.15900
C454        C  0.33464878  0.86134785  0.48043016     0.14200
C455        C  0.33136737  0.84689597  0.50742162     0.01200
C456        C  0.35136424  0.85364011  0.53003716     0.16100
C457        C  0.37298496  0.87540936  0.52635595     0.25600
C458        C  0.37560538  0.89078755  0.49977286    -0.40800
C459        C  0.35659310  0.88291915  0.47656909     0.32600
C460        C  0.30527374  0.82755968  0.51325369     0.01200
F461        F  0.34954532  0.83950851  0.55610259    -0.13100
F462        F  0.35797609  0.89716880  0.45058652    -0.13600
C463        C  0.29814713  0.80310543  0.49543632     0.16200
C464        C  0.27236989  0.78647595  0.50057414     0.25600
C465        C  0.25321336  0.79393504  0.52373808    -0.40700
C466        C  0.26145802  0.81765300  0.54227745     0.32500
C467        C  0.28662819  0.83437333  0.53676010     0.14200
F468        F  0.31612582  0.79531577  0.47302434    -0.13100
F469        F  0.24502356  0.82532614  0.56590236    -0.13600
F470        F  0.26598389  0.76355114  0.48250778    -0.15900
F471        F  0.29214345  0.85817845  0.55401846    -0.14400
F472        F  0.31548129  0.85586557  0.45827164    -0.14400
F473        F  0.39125162  0.88159227  0.54906465    -0.15900
C474        C  0.11748613  0.79526587  0.60738053     0.14200
C475        C  0.11797190  0.82617711  0.60901111     0.01200
C476        C  0.13847148  0.84200713  0.59234896     0.16100
C477        C  0.15779945  0.82726216  0.57371625     0.25600
C478        C  0.15702644  0.79631506  0.57144658    -0.40800
C479        C  0.13689570  0.78037802  0.58869998     0.32600
C480        C  0.09472611  0.84249125  0.62462557     0.01200
F481        F  0.13864790  0.87194910  0.59293252    -0.13100
F482        F  0.13611407  0.75046700  0.58762695    -0.13600
C483        C  0.10179628  0.86166197  0.64779744     0.16200
C484        C  0.08083280  0.88170972  0.65821068     0.25600
C485        C  0.05277482  0.88297134  0.64528516    -0.40700
C486        C  0.04533662  0.86270717  0.62315309     0.32500
C487        C  0.06610458  0.84247106  0.61306934     0.14200
F488        F  0.12937634  0.86187348  0.65928886    -0.13100
F489        F  0.01860379  0.86393739  0.60988252    -0.13600
F490        F  0.08832557  0.90097315  0.67974756    -0.15900
F491        F  0.05904374  0.82447020  0.59033405    -0.14400
F492        F  0.09792084  0.77962941  0.62356207    -0.14400
F493        F  0.17624835  0.84343902  0.55677404    -0.15900
C494        C  0.46417271  0.82367187  0.69445433     0.14200
C495        C  0.48731886  0.82842205  0.67452137     0.01200
C496        C  0.51292259  0.81110768  0.67679585     0.16100
C497        C  0.51648193  0.79156930  0.70016258     0.25600
C498        C  0.49423166  0.78845346  0.72123284    -0.40800
C499        C  0.46757439  0.80366214  0.71750696     0.32600
C500        C  0.48581903  0.85278342  0.65282814     0.01200
F501        F  0.53512850  0.81425003  0.65717694    -0.13100
F502        F  0.44599692  0.80137758  0.73791203    -0.13600
C503        C  0.50800509  0.87450665  0.65208142     0.16200
C504        C  0.50707082  0.89719837  0.63141404     0.25600
C505        C  0.48366353  0.89896289  0.61131970    -0.40700
C506        C  0.46116772  0.87756032  0.61248886     0.32500
C507        C  0.46229737  0.85469724  0.63295867     0.14200
F508        F  0.53034177  0.87412337  0.67184057    -0.13100
F509        F  0.43845127  0.87806424  0.59323227    -0.13600
F510        F  0.52874603  0.91784888  0.63159057    -0.15900
F511        F  0.44070660  0.83397599  0.63286852    -0.14400
F512        F  0.43928643  0.84019148  0.69314198    -0.14400
F513        F  0.54256524  0.77734970  0.70348318    -0.15900
C514        C  0.54987090  0.86318012  0.82796288     0.14200
C515        C  0.56323592  0.85391703  0.85406495     0.01200
C516        C  0.56509677  0.82364752  0.86011738     0.16100
C517        C  0.55297690  0.80297976  0.84084639     0.25600
C518        C  0.53852117  0.81221653  0.81519575    -0.40800
C519        C  0.53758415  0.84259291  0.80871386     0.32600
C520        C  0.57354546  0.87584901  0.87580157     0.01200
F521        F  0.57762282  0.81410992  0.88532727    -0.13100
F522        F  0.52376237  0.85263908  0.78436835    -0.13600
C523        C  0.55370600  0.89676087  0.88709150     0.16200
C524        C  0.56293964  0.91703230  0.90817621     0.25600
C525        C  0.59207357  0.91662337  0.91846360    -0.40700
C526        C  0.61197328  0.89579845  0.90733506     0.32500
C527        C  0.60279792  0.87555435  0.88602295     0.14200
F528        F  0.52516335  0.89708569  0.87819364    -0.13100
F529        F  0.64025458  0.89531252  0.91695137    -0.13600
F530        F  0.54337427  0.93695776  0.91887761    -0.15900
F531        F  0.62250413  0.85591937  0.87508663    -0.14400
F532        F  0.54831321  0.89230141  0.82131702    -0.14400
F533        F  0.55526231  0.77391830  0.84749068    -0.15900
C534        C  0.49048787  0.17916256  0.67138770     0.14200
C535        C  0.47438101  0.15259520  0.67209155     0.01200
C536        C  0.45920437  0.14517538  0.69778042     0.16100
C537        C  0.46219189  0.16250006  0.72299610     0.25600
C538        C  0.48020344  0.18782929  0.72308244    -0.40800
C539        C  0.49324648  0.19676849  0.69667413     0.32600
C540        C  0.47579285  0.13094469  0.64749978     0.01200
F541        F  0.44334585  0.11981848  0.69916294    -0.13100
F542        F  0.51079020  0.22099567  0.69600175    -0.13600
C543        C  0.50243512  0.11660417  0.64092695     0.16200
C544        C  0.50338623  0.09367948  0.62020871     0.25600
C545        C  0.47768595  0.08472357  0.60521070    -0.40700
C546        C  0.45119133  0.10000009  0.61119497     0.32500
C547        C  0.45024627  0.12250906  0.63231740     0.14200
F548        F  0.52740772  0.12396936  0.65558417    -0.13100
F549        F  0.42596772  0.09343596  0.59670150    -0.13600
F550        F  0.52940816  0.07972517  0.61556323    -0.15900
F551        F  0.42420517  0.13601967  0.63808421    -0.14400
F552        F  0.50467541  0.18728527  0.64657985    -0.14400
F553        F  0.44905531  0.15337471  0.74806038    -0.15900
C554        C  0.53504472  0.11604400  0.83220044     0.14200
C555        C  0.54114946  0.12515365  0.86084584     0.01200
C556        C  0.53669759  0.15453765  0.86903060     0.16100
C557        C  0.52681911  0.17496339  0.84859170     0.25600
C558        C  0.52137761  0.16628799  0.81936891    -0.40800
C559        C  0.52536003  0.13641526  0.81151314     0.32600
C560        C  0.55344979  0.10425808  0.88193709     0.01200
F561        F  0.54186871  0.16340487  0.89695619    -0.13100
F562        F  0.52050934  0.12684819  0.78376818    -0.13600
C563        C  0.58297515  0.10698947  0.89069035     0.16200
C564        C  0.59498488  0.08693459  0.91041232     0.25600
C565        C  0.57753828  0.06404759  0.92141654    -0.40700
C566        C  0.54791374  0.06150669  0.91295837     0.32500
C567        C  0.53588743  0.08157450  0.89326849     0.14200
F568        F  0.60011034  0.12895785  0.87991364    -0.13100
F569        F  0.53064592  0.03991394  0.92426835    -0.13600
F570        F  0.62352197  0.08977495  0.91884084    -0.15900
F571        F  0.50706001  0.07928856  0.88566027    -0.14400
F572        F  0.53921987  0.08751226  0.82412471    -0.14400
F573        F  0.52245939  0.20314510  0.85770006    -0.15900
C574        C  0.46663952  0.16357716  0.31122995     0.14200
C575        C  0.49001143  0.14637174  0.32229716     0.01200
C576        C  0.51776494  0.14852253  0.30891020     0.16100
C577        C  0.52193878  0.16650885  0.28457199     0.25600
C578        C  0.49848461  0.18281247  0.27265592    -0.40800
C579        C  0.47084975  0.18167989  0.28653340     0.32600
C580        C  0.48581390  0.12469901  0.34648788     0.01200
F581        F  0.54059447  0.13169704  0.31830803    -0.13100
F582        F  0.44755987  0.19641693  0.27507747    -0.13600
C583        C  0.46578925  0.10113160  0.34354748     0.16200
C584        C  0.46531384  0.07819411  0.36414525     0.25600
C585        C  0.48531685  0.07803235  0.38769636    -0.40700
C586        C  0.50457461  0.10209021  0.39117218     0.32500
C587        C  0.50457189  0.12529790  0.37101474     0.14200
F588        F  0.44794553  0.09935472  0.31977619    -0.13100
F589        F  0.52344453  0.10321994  0.41418170    -0.13600
F590        F  0.44651277  0.05525410  0.36004293    -0.15900
F591        F  0.52350040  0.14814439  0.37505487    -0.14400
F592        F  0.43963447  0.16228917  0.32387900    -0.14400
F593        F  0.54884267  0.16684720  0.27160398    -0.15900
C594        C  0.59567484  0.11292451  0.09419185     0.14200
C595        C  0.57172188  0.10535523  0.11212411     0.01200
C596        C  0.55966524  0.07685896  0.11030299     0.16100
C597        C  0.57115000  0.05633584  0.09064567     0.25600
C598        C  0.59476522  0.06401279  0.07237920    -0.40800
C599        C  0.60716093  0.09233901  0.07443972     0.32600
C600        C  0.55945542  0.12684776  0.13314565     0.01200
F601        F  0.53601924  0.06928020  0.12682745    -0.13100
F602        F  0.62967787  0.10026674  0.05659958    -0.13600
C603        C  0.54777844  0.15382618  0.12361771     0.16200
C604        C  0.53542803  0.17360416  0.14370536     0.25600
C605        C  0.53432338  0.16656435  0.17372717    -0.40700
C606        C  0.54635960  0.13945117  0.18303909     0.32500
C607        C  0.55882230  0.11996484  0.16296479     0.14200
F608        F  0.54761335  0.16066974  0.09473938    -0.13100
F609        F  0.54650534  0.13165517  0.21166762    -0.13600
F610        F  0.52403354  0.19927444  0.13354788    -0.15900
F611        F  0.57060645  0.09430400  0.17273715    -0.14400
F612        F  0.60781748  0.14024780  0.09576985    -0.14400
F613        F  0.55831151  0.02936513  0.08838920    -0.15900
C614        C  0.48813948  0.84474848  0.28835294     0.14200
C615        C  0.49159550  0.83099259  0.31557444     0.01200
C616        C  0.50035724  0.80126025  0.31649869     0.16100
C617        C  0.50718256  0.78600898  0.29060750     0.25600
C618        C  0.50582082  0.80051201  0.26354230    -0.40800
C619        C  0.49532422  0.82971640  0.26258750     0.32600
C620        C  0.49045572  0.84906484  0.34263343     0.01200
F621        F  0.50371877  0.78752552  0.34259960    -0.13100
F622        F  0.49313272  0.84412379  0.23668903    -0.13600
C623        C  0.46383549  0.86069439  0.35311693     0.16200
C624        C  0.46375997  0.88077878  0.37656145     0.25600
C625        C  0.49045834  0.89007702  0.38962349    -0.40700
C626        C  0.51692468  0.87699519  0.37984421     0.32500
C627        C  0.51684326  0.85690774  0.35656437     0.14200
F628        F  0.43796201  0.85298772  0.34029218    -0.13100
F629        F  0.54319070  0.88378248  0.39223121    -0.13600
F630        F  0.43752407  0.89155219  0.38595725    -0.15900
F631        F  0.54287319  0.84604979  0.34666139    -0.14400
F632        F  0.47982200  0.87346036  0.28686954    -0.14400
F633        F  0.51736597  0.75793460  0.29220284    -0.15900
C634        C  0.62586732  0.87602083  0.09979535     0.14200
C635        C  0.59838907  0.87608548  0.11392705     0.01200
C636        C  0.57715261  0.89716650  0.10625341     0.16100
C637        C  0.58319937  0.91784445  0.08464612     0.25600
C638        C  0.61053150  0.91772141  0.07035969    -0.40800
C639        C  0.63194928  0.89685388  0.07807652     0.32600
C640        C  0.59098071  0.85375115  0.13604548     0.01200
F641        F  0.55020967  0.89711653  0.11913645    -0.13100
F642        F  0.65851410  0.89664857  0.06449529    -0.13600
C643        C  0.58501721  0.86245284  0.16484787     0.16200
C644        C  0.57318142  0.84241108  0.18474107     0.25600
C645        C  0.56649416  0.81327381  0.17594454    -0.40700
C646        C  0.57453806  0.80418516  0.14743158     0.32500
C647        C  0.58660975  0.82432411  0.12771451     0.14200
F648        F  0.58965978  0.89078671  0.17337468    -0.13100
F649        F  0.56953410  0.77623364  0.13793352    -0.13600
F650        F  0.56740754  0.85203167  0.21227887    -0.15900
F651        F  0.59227487  0.81554247  0.09986911    -0.14400
F652        F  0.64666439  0.85586017  0.10709685    -0.14400
F653        F  0.56213306  0.93764801  0.07706183    -0.15900
C654        C  0.85896083  0.33630257  0.47924379     0.14200
C655        C  0.85662525  0.32062131  0.50564466     0.01200
C656        C  0.87387635  0.32953803  0.52959229     0.16100
C657        C  0.89325510  0.35334733  0.52722556     0.25600
C658        C  0.89630465  0.36870710  0.50062208    -0.40800
C659        C  0.87858549  0.36011957  0.47672221     0.32600
C660        C  0.83741201  0.29412053  0.50813462     0.01200
F661        F  0.87286848  0.31439319  0.55513126    -0.13100
F662        F  0.87989194  0.37482410  0.45097903    -0.13600
C663        C  0.84161788  0.26982017  0.48938424     0.16200
C664        C  0.82601430  0.24356056  0.49383776     0.25600
C665        C  0.80595117  0.24112463  0.51703216    -0.40700
C666        C  0.80101164  0.26555534  0.53527605     0.32500
C667        C  0.81648730  0.29192505  0.53077564     0.14200
F668        F  0.86208371  0.27091628  0.46778923    -0.13100
F669        F  0.78199217  0.26351102  0.55806722    -0.13600
F670        F  0.83144166  0.21999489  0.47628098    -0.15900
F671        F  0.81154632  0.31513933  0.54893750    -0.14400
F672        F  0.84211114  0.32861289  0.45589697    -0.14400
F673        F  0.90972667  0.36064528  0.55095757    -0.15900
C674        C  0.84280800  0.60884694  0.52782038     0.14200
C675        C  0.84100859  0.63180977  0.50727153     0.01200
C676        C  0.86054525  0.63141736  0.48331852     0.16100
C677        C  0.88269244  0.60992123  0.48111850     0.25600
C678        C  0.88583078  0.58821815  0.50281236    -0.40800
C679        C  0.86489877  0.58726678  0.52557175     0.32600
C680        C  0.82200965  0.65822486  0.51293227     0.01200
F681        F  0.85896406  0.65273240  0.46260718    -0.13100
F682        F  0.86605603  0.56569766  0.54604102    -0.13600
C683        C  0.83537366  0.68610400  0.51510806     0.16200
C684        C  0.81891854  0.71100602  0.52257320     0.25600
C685        C  0.78852557  0.70894629  0.52839767    -0.40700
C686        C  0.77474852  0.68125762  0.52566412     0.32500
C687        C  0.79137261  0.65605281  0.51800076     0.14200
F688        F  0.86493235  0.68905272  0.51161350    -0.13100
F689        F  0.74571791  0.67829474  0.53207596    -0.13600
F690        F  0.83310012  0.73726928  0.52518145    -0.15900
F691        F  0.77768099  0.62950104  0.51608276    -0.14400
F692        F  0.82436102  0.60829569  0.55115461    -0.14400
F693        F  0.90219118  0.61154348  0.45869971    -0.15900
C694        C  0.09728431  0.32265877  0.48561501     0.14200
C695        C  0.11619275  0.32244540  0.51007368     0.01200
C696        C  0.11505828  0.34632963  0.52976977     0.16100
C697        C  0.09491475  0.36934464  0.52566606     0.25600
C698        C  0.07571230  0.36936402  0.50152506    -0.40800
C699        C  0.07739550  0.34597954  0.48124961     0.32600
C700        C  0.13529022  0.29633050  0.51624267     0.01200
F701        F  0.13337226  0.34729238  0.55322195    -0.13100
F702        F  0.05867094  0.34472284  0.45812958    -0.13600
C703        C  0.15545482  0.28555026  0.49535846     0.16200
C704        C  0.17096723  0.25913323  0.50023860     0.25600
C705        C  0.16638632  0.24287556  0.52600821    -0.40700
C706        C  0.14762811  0.25477056  0.54760505     0.32500
C707        C  0.13225179  0.28103803  0.54276209     0.14200
F708        F  0.15962808  0.30028910  0.46991907    -0.13100
F709        F  0.14340519  0.24041115  0.57327025    -0.13600
F710        F  0.18898690  0.24858690  0.47899430    -0.15900
F711        F  0.11305446  0.29062575  0.56346522    -0.14400
F712        F  0.09698279  0.29950117  0.46672798    -0.14400
F713        F  0.09420277  0.39176613  0.54539700    -0.15900
C714        C  0.13479625  0.69022404  0.48289228     0.14200
C715        C  0.14335517  0.66347194  0.49581366     0.01200
C716        C  0.17052429  0.66221774  0.51066909     0.16100
C717        C  0.18746524  0.68783285  0.51475698     0.25600
C718        C  0.17736809  0.71508215  0.50430527    -0.40800
C719        C  0.15154309  0.71582263  0.48729130     0.32600
C720        C  0.12205556  0.63848149  0.49728940     0.01200
F721        F  0.17967931  0.63656248  0.52285883    -0.13100
F722        F  0.14120870  0.74190432  0.47702710    -0.13600
C723        C  0.11016018  0.62581764  0.47181189     0.16200
C724        C  0.08776452  0.60453261  0.47356387     0.25600
C725        C  0.07652745  0.59551147  0.50091866    -0.40700
C726        C  0.08901334  0.60793249  0.52643122     0.32500
C727        C  0.11146801  0.62904935  0.52457290     0.14200
F728        F  0.12009002  0.63426040  0.44513366    -0.13100
F729        F  0.07912536  0.60056302  0.55338104    -0.13600
F730        F  0.07688104  0.59308641  0.44831146    -0.15900
F731        F  0.12195976  0.64136635  0.54960469    -0.14400
F732        F  0.10875619  0.69222445  0.46840865    -0.14400
F733        F  0.21210806  0.68658702  0.53152008    -0.15900
C734        C  0.81210526  0.51625623  0.68692937     0.14200
C735        C  0.82957131  0.49069260  0.68383171     0.01200
C736        C  0.82806011  0.46902903  0.70588384     0.16100
C737        C  0.81109226  0.47376199  0.73112014     0.25600
C738        C  0.79548866  0.50020370  0.73487362    -0.40800
C739        C  0.79561779  0.52109398  0.71237127     0.32600
C740        C  0.85123297  0.48803740  0.65921822     0.01200
F741        F  0.84472508  0.44425847  0.70414360    -0.13100
F742        F  0.78135515  0.54716239  0.71596171    -0.13600
C743        C  0.87061374  0.51147948  0.65307161     0.16200
C744        C  0.89135821  0.50925525  0.63055038     0.25600
C745        C  0.89428206  0.48305448  0.61412077    -0.40700
C746        C  0.87518589  0.45937784  0.62047344     0.32500
C747        C  0.85361494  0.46203276  0.64240680     0.14200
F748        F  0.87024499  0.53642501  0.66957022    -0.13100
F749        F  0.87687101  0.43377019  0.60516955    -0.13600
F750        F  0.90919834  0.53272602  0.62549759    -0.15900
F751        F  0.83471363  0.43927829  0.64684207    -0.14400
F752        F  0.81189467  0.53720913  0.66580757    -0.14400
F753        F  0.81142356  0.45335089  0.75276517    -0.15900
C754        C  0.86844956  0.56175197  0.84055330     0.14200
C755        C  0.85936326  0.57219112  0.86796872     0.01200
C756        C  0.82947958  0.57110847  0.87544923     0.16100
C757        C  0.80894316  0.55889603  0.85612654     0.25600
C758        C  0.81795597  0.54751884  0.82870636    -0.40800
C759        C  0.84801273  0.54974163  0.82099340     0.32600
C760        C  0.88130849  0.58254580  0.88946717     0.01200
F761        F  0.82031800  0.58093291  0.90200668    -0.13100
F762        F  0.85794951  0.54004715  0.79468848    -0.13600
C763        C  0.88119095  0.61190244  0.89945280     0.16200
C764        C  0.90163889  0.62117395  0.92047536     0.25600
C765        C  0.92228544  0.60114874  0.93163271    -0.40700
C766        C  0.92244770  0.57189299  0.92158834     0.32500
C767        C  0.90207152  0.56262796  0.90067367     0.14200
F768        F  0.86137554  0.63149403  0.88873840    -0.13100
F769        F  0.94197553  0.55218180  0.93263577    -0.13600
F770        F  0.90133659  0.64954726  0.93000313    -0.15900
F771        F  0.90201413  0.53398598  0.89193553    -0.14400
F772        F  0.89729124  0.56302987  0.83281116    -0.14400
F773        F  0.78035013  0.55792182  0.86471555    -0.15900
C774        C  0.16475574  0.47440436  0.68824147     0.14200
C775        C  0.14487859  0.49647802  0.67893615     0.01200
C776        C  0.14581915  0.52402480  0.69314266     0.16100
C777        C  0.16521047  0.52915753  0.71634232     0.25600
C778        C  0.18353586  0.50659593  0.72713061    -0.40800
C779        C  0.18384025  0.47938107  0.71220119     0.32600
C780        C  0.12254119  0.49118866  0.65516854     0.01200
F781        F  0.12667385  0.54572798  0.68570417    -0.13100
F782        F  0.20130442  0.45711718  0.72173041    -0.13600
C783        C  0.10275264  0.46720826  0.65638688     0.16200
C784        C  0.08016231  0.46404812  0.63544348     0.25600
C785        C  0.07640849  0.48515174  0.61316112    -0.40700
C786        C  0.09615033  0.50901937  0.61198482     0.32500
C787        C  0.11917968  0.51169219  0.63229248     0.14200
F788        F  0.10437021  0.44754417  0.67864559    -0.13100
F789        F  0.09339262  0.52975933  0.59083085    -0.13600
F790        F  0.06105978  0.44115569  0.63794543    -0.15900
F791        F  0.13829290  0.53454701  0.62956236    -0.14400
F792        F  0.16537193  0.44785993  0.67447205    -0.14400
F793        F  0.16518181  0.55621783  0.72915179    -0.15900
C794        C  0.15765722  0.55112493  0.87754443     0.14200
C795        C  0.13283645  0.56710284  0.86875656     0.01200
C796        C  0.12794611  0.57236020  0.83898221     0.16100
C797        C  0.14742825  0.56118544  0.81805930     0.25600
C798        C  0.17192356  0.54409862  0.82664828    -0.40800
C799        C  0.17708462  0.53971227  0.85676335     0.32600
C800        C  0.11139281  0.57703514  0.89076624     0.01200
F801        F  0.10411794  0.58809658  0.83019707    -0.13100
F802        F  0.20023337  0.52340979  0.86626686    -0.13600
C803        C  0.11778887  0.60117671  0.90895140     0.16200
C804        C  0.09778509  0.60985004  0.93056733     0.25600
C805        C  0.07139484  0.59409988  0.93452439    -0.40700
C806        C  0.06530034  0.56966352  0.91645804     0.32500
C807        C  0.08501738  0.56141114  0.89452361     0.14200
F808        F  0.14333432  0.61636453  0.90558812    -0.13100
F809        F  0.04027994  0.55369968  0.92025027    -0.13600
F810        F  0.10403750  0.63367534  0.94751074    -0.15900
F811        F  0.07867577  0.53782816  0.87725890    -0.14400
F812        F  0.16244725  0.54564633  0.90632097    -0.14400
F813        F  0.14218356  0.56710475  0.78945131    -0.15900
C814        C  0.84538543  0.46907267  0.28807007     0.14200
C815        C  0.83241261  0.47576994  0.31514509     0.01200
C816        C  0.80289130  0.48530902  0.31581941     0.16100
C817        C  0.78743348  0.49037141  0.28968568     0.25600
C818        C  0.80144744  0.48616406  0.26263490    -0.40800
C819        C  0.83005037  0.47421872  0.26209119     0.32600
C820        C  0.85110310  0.47676473  0.34182958     0.01200
F821        F  0.78967830  0.49134465  0.34175976    -0.13100
F822        F  0.84393546  0.46945301  0.23620643    -0.13600
C823        C  0.85686019  0.50395855  0.35543621     0.16200
C824        C  0.87745701  0.50611328  0.37815335     0.25600
C825        C  0.89310568  0.48103027  0.38771881    -0.40700
C826        C  0.88626983  0.45350787  0.37477408     0.32500
C827        C  0.86562712  0.45147796  0.35199912     0.14200
F828        F  0.84347816  0.52885150  0.34574033    -0.13100
F829        F  0.89999203  0.42849533  0.38361228    -0.13600
F830        F  0.88213310  0.53300580  0.39029342    -0.15900
F831        F  0.86014339  0.42483178  0.33951087    -0.14400
F832        F  0.87386389  0.46004634  0.28665226    -0.14400
F833        F  0.75990103  0.50194838  0.29083047    -0.15900
C834        C  0.91017418  0.58460153  0.12543394     0.14200
C835        C  0.88230554  0.59768780  0.12757318     0.01200
C836        C  0.87495580  0.62128833  0.10911236     0.16100
C837        C  0.89485778  0.63078785  0.08778399     0.25600
C838        C  0.92203194  0.61638483  0.08445487    -0.40800
C839        C  0.92980967  0.59372032  0.10391052     0.32600
C840        C  0.85967016  0.58351699  0.14575496     0.01200
F841        F  0.84806558  0.63422174  0.11102577    -0.13100
F842        F  0.95577177  0.57917098  0.10087756    -0.13600
C843        C  0.86287853  0.58171186  0.17621061     0.16200
C844        C  0.84300134  0.56506651  0.19270565     0.25600
C845        C  0.81971369  0.54989569  0.17884367    -0.40700
C846        C  0.81658566  0.55205725  0.14827000     0.32500
C847        C  0.83636476  0.56872188  0.13196726     0.14200
F848        F  0.88552591  0.59569376  0.18984203    -0.13100
F849        F  0.79532147  0.53682330  0.13378512    -0.13600
F850        F  0.84662494  0.56376880  0.22214207    -0.15900
F851        F  0.83373357  0.56909554  0.10238995    -0.14400
F852        F  0.91749202  0.56147676  0.14276573    -0.14400
F853        F  0.88716575  0.65305822  0.06956539    -0.15900
C854        C  0.17339137  0.50040360  0.32282498     0.14200
C855        C  0.14382404  0.49156387  0.31877620     0.01200
C856        C  0.13366540  0.48697666  0.29007399     0.16100
C857        C  0.15178502  0.49315831  0.26605049     0.25600
C858        C  0.18067176  0.50386736  0.26997899    -0.40800
C859        C  0.19171546  0.50634082  0.29862540     0.32600
C860        C  0.12265344  0.48981114  0.34390180     0.01200
F861        F  0.10538362  0.47854504  0.28518631    -0.13100
F862        F  0.21940449  0.51666478  0.30323887    -0.13600
C863        C  0.11626959  0.51510798  0.36057939     0.16200
C864        C  0.09441299  0.51459706  0.38233792     0.25600
C865        C  0.07805509  0.48868798  0.38804512    -0.40700
C866        C  0.08503774  0.46313528  0.37171528     0.32500
C867        C  0.10693791  0.46374930  0.34990349     0.14200
F868        F  0.13050988  0.54082986  0.35503862    -0.13100
F869        F  0.07018167  0.43758519  0.37626260    -0.13600
F870        F  0.08948706  0.53970697  0.39772854    -0.15900
F871        F  0.11268379  0.43881741  0.33443644    -0.14400
F872        F  0.18417477  0.50433495  0.35024342    -0.14400
F873        F  0.14047990  0.49024737  0.23869199    -0.15900
C874        C  0.12889307  0.60144371  0.18113244     0.14200
C875        C  0.13398325  0.60237663  0.15087202     0.01200
C876        C  0.15982485  0.58998012  0.13945286     0.16100
C877        C  0.17922525  0.57488129  0.15764758     0.25600
C878        C  0.17313863  0.57195571  0.18775272    -0.40800
C879        C  0.14827149  0.58628092  0.19946896     0.32600
C880        C  0.11028273  0.61112559  0.13063769     0.01200
F881        F  0.16502368  0.59023334  0.11021445    -0.13100
F882        F  0.14216498  0.58485925  0.22848043    -0.13600
C883        C  0.11507360  0.63259477  0.10904346     0.16200
C884        C  0.09429662  0.63676351  0.08685179     0.25600
C885        C  0.06864298  0.61947714  0.08605328    -0.40700
C886        C  0.06331918  0.59893999  0.10833269     0.32500
C887        C  0.08399566  0.59476275  0.13042028     0.14200
F888        F  0.14024814  0.64876582  0.10896806    -0.13100
F889        F  0.03874630  0.58184490  0.10781858    -0.13600
F890        F  0.09951335  0.65697501  0.06565245    -0.15900
F891        F  0.07928909  0.57324883  0.15047388    -0.14400
F892        F  0.10434246  0.61398572  0.19265372    -0.14400
F893        F  0.20266003  0.56115791  0.14518069    -0.15900
C894        C  0.51879948  0.31137713  0.18328894     0.14200
C895        C  0.49512304  0.31610094  0.16387143     0.01200
C896        C  0.47156358  0.29583236  0.16397375     0.16100
C897        C  0.47269592  0.27045381  0.18140300     0.25600
C898        C  0.49730911  0.26471167  0.19907395    -0.40800
C899        C  0.52003339  0.28574924  0.20044623     0.32600
C900        C  0.49644032  0.33999580  0.14133630     0.01200
F901        F  0.44856917  0.29919386  0.14530689    -0.13100
F902        F  0.54449392  0.28037056  0.21666454    -0.13600
C903        C  0.52077372  0.34193095  0.12232646     0.16200
C904        C  0.52132188  0.36262412  0.09959851     0.25600
C905        C  0.49723219  0.38156850  0.09479424    -0.40700
C906        C  0.47305192  0.37996149  0.11405134     0.32500
C907        C  0.47277804  0.35961957  0.13718357     0.14200
F908        F  0.54355063  0.32271777  0.12480758    -0.13100
F909        F  0.44966488  0.39826941  0.11064448    -0.13600
F910        F  0.54492285  0.36293739  0.08142848    -0.15900
F911        F  0.44931587  0.35910784  0.15555717    -0.14400
F912        F  0.54146641  0.33089096  0.18457176    -0.14400
F913        F  0.45085501  0.25011349  0.17911204    -0.15900
C914        C  0.52311798  0.63017724  0.12353126     0.14200
C915        C  0.49858854  0.64366918  0.13654917     0.01200
C916        C  0.47022716  0.63399240  0.12877651     0.16100
C917        C  0.46635136  0.61199524  0.10752553     0.25600
C918        C  0.49088046  0.59926763  0.09342571    -0.40800
C919        C  0.51936629  0.60816888  0.10234070     0.32600
C920        C  0.50252054  0.66966139  0.15600198     0.01200
F921        F  0.44615744  0.64634641  0.14143668    -0.13100
F922        F  0.54382972  0.59615315  0.09010319    -0.13600
C923        C  0.49079967  0.69700895  0.14757316     0.16200
C924        C  0.49642507  0.72229171  0.16413151     0.25600
C925        C  0.51374497  0.72079630  0.18950586    -0.40700
C926        C  0.52494722  0.69344577  0.19851770     0.32500
C927        C  0.51939423  0.66797691  0.18181848     0.14200
F928        F  0.47531711  0.69956235  0.12229939    -0.13100
F929        F  0.54250466  0.69170572  0.22248142    -0.13600
F930        F  0.48607959  0.74867388  0.15464199    -0.15900
F931        F  0.53105278  0.64184306  0.19039720    -0.14400
F932        F  0.55079716  0.63935230  0.13025133    -0.14400
F933        F  0.43849996  0.60391352  0.10043108    -0.15900
C934        C  0.50845751  0.63487695  0.87674463     0.14200
C935        C  0.48260785  0.64267819  0.86177013     0.01200
C936        C  0.45621967  0.62811731  0.86874989     0.16100
C937        C  0.45552360  0.60656764  0.89071694     0.25600
C938        C  0.48128067  0.59924468  0.90642245    -0.40800
C939        C  0.50788389  0.61336779  0.89865204     0.32600
C940        C  0.48305299  0.66720450  0.84019644     0.01200
F941        F  0.43102710  0.63480830  0.85421732    -0.13100
F942        F  0.53343986  0.60699322  0.91269575    -0.13600
C943        C  0.50126644  0.66590609  0.81530415     0.16200
C944        C  0.50443390  0.69058518  0.79709793     0.25600
C945        C  0.48961557  0.71695533  0.80363864    -0.40700
C946        C  0.47045178  0.71783260  0.82774513     0.32500
C947        C  0.46703515  0.69314819  0.84574836     0.14200
F948        F  0.51685440  0.64109146  0.80930114    -0.13100
F949        F  0.45626174  0.74323273  0.83476184    -0.13600
F950        F  0.52366682  0.68945834  0.77441470    -0.15900
F951        F  0.44964657  0.69527640  0.86979904    -0.14400
F952        F  0.53418864  0.64897148  0.87093799    -0.14400
F953        F  0.42955977  0.59294466  0.89633465    -0.15900
C954        C  0.61428243  0.52318930  0.86073045     0.14200
C955        C  0.63637454  0.50173137  0.85752120     0.01200
C956        C  0.63573397  0.47673855  0.87565962     0.16100
C957        C  0.61451086  0.47417008  0.89775872     0.25600
C958        C  0.59366870  0.49668604  0.90229525    -0.40800
C959        C  0.59325767  0.52080167  0.88293237     0.32600
C960        C  0.66228257  0.50743647  0.83845909     0.01200
F961        F  0.65689500  0.45573645  0.87331624    -0.13100
F962        F  0.57270717  0.54236138  0.88553149    -0.13600
C963        C  0.67923608  0.53291430  0.84324916     0.16200
C964        C  0.70590390  0.53689993  0.82870360     0.25600
C965        C  0.71667461  0.51527366  0.80926065    -0.40700
C966        C  0.69881811  0.49065767  0.80291012     0.32500
C967        C  0.67180595  0.48677482  0.81744177     0.14200
F968        F  0.67088660  0.55325951  0.86345778    -0.13100
F969        F  0.70821529  0.46952833  0.78403291    -0.13600
F970        F  0.72165429  0.56173336  0.83441419    -0.15900
F971        F  0.65532471  0.46247368  0.81159342    -0.14400
F972        F  0.61364894  0.54704506  0.84287393    -0.14400
F973        F  0.61559173  0.45052162  0.91583540    -0.15900
C974        C  0.47113962  0.33837368  0.88058585     0.14200
C975        C  0.49188013  0.34101368  0.85779452     0.01200
C976        C  0.51064881  0.36576785  0.85771910     0.16100
C977        C  0.50970100  0.38653459  0.88052125     0.25600
C978        C  0.48963077  0.38331561  0.90375828    -0.40800
C979        C  0.46967914  0.35958221  0.90298082     0.32600
C980        C  0.49504628  0.31729427  0.83511541     0.01200
F981        F  0.53007348  0.36980694  0.83553281    -0.13100
F982        F  0.44970466  0.35601238  0.92475555    -0.13600
C983        C  0.47050167  0.30668301  0.81930352     0.16200
C984        C  0.47324775  0.28249720  0.80015443     0.25600
C985        C  0.50055898  0.26848447  0.79636355    -0.40700
C986        C  0.52537073  0.28009763  0.81091952     0.32500
C987        C  0.52264857  0.30402955  0.83017083     0.14200
F988        F  0.44357842  0.31904650  0.82319808    -0.13100
F989        F  0.55204782  0.26685779  0.80801822    -0.13600
F990        F  0.44873431  0.27114743  0.78737121    -0.15900
F991        F  0.54668990  0.31278647  0.84562204    -0.14400
F992        F  0.45324715  0.31443515  0.88208273    -0.14400
F993        F  0.52823935  0.41001685  0.87963169    -0.15900
C994        C  0.31425118  0.50405297  0.81483682     0.14200
C995        C  0.31329034  0.48494157  0.83903314     0.01200
C996        C  0.28758128  0.46842043  0.84396001     0.16100
C997        C  0.26267741  0.47243090  0.82631741     0.25600
C998        C  0.26300783  0.49270511  0.80308425    -0.40800
C999        C  0.28928304  0.50794213  0.79702759     0.32600
C1000       C  0.33736838  0.48479180  0.86121506     0.01200
F1001       F  0.28568404  0.45033840  0.86749087    -0.13100
F1002       F  0.28990835  0.52864194  0.77568067    -0.13600
C1003       C  0.34383778  0.51055967  0.87712983     0.16200
C1004       C  0.36413747  0.51007253  0.90020764     0.25600
C1005       C  0.37850558  0.48370382  0.90808213    -0.40700
C1006       C  0.37272617  0.45807429  0.89135677     0.32500
C1007       C  0.35225834  0.45863351  0.86834097     0.14200
F1008       F  0.32944851  0.53606827  0.87116592    -0.13100
F1009       F  0.38678386  0.43234584  0.89698245    -0.13600
F1010       F  0.36899842  0.53540819  0.91534818    -0.15900
F1011       F  0.34685853  0.43350233  0.85303589    -0.14400
F1012       F  0.33886460  0.52016853  0.80947963    -0.14400
F1013       F  0.23727430  0.45841456  0.83353839    -0.15900
C1014       C  0.29863038  0.48159769  0.17805549     0.14200
C1015       C  0.31274988  0.50357600  0.16131300     0.01200
C1016       C  0.30316619  0.53290089  0.16440480     0.16100
C1017       C  0.27990444  0.54002426  0.18313524     0.25600
C1018       C  0.26470277  0.51795326  0.19881308    -0.40800
C1019       C  0.27483215  0.48871262  0.19660275     0.32600
C1020       C  0.33684582  0.49637693  0.14001381     0.01200
F1021       F  0.31523465  0.55467470  0.14796551    -0.13100
F1022       F  0.26061570  0.46675711  0.21091507    -0.13600
C1023       C  0.33284142  0.47487653  0.11798360     0.16200
C1024       C  0.35454490  0.47020568  0.09651348     0.25600
C1025       C  0.38021482  0.48758671  0.09604076    -0.40700
C1026       C  0.38443853  0.50870042  0.11819229     0.32500
C1027       C  0.36331711  0.51267100  0.14019828     0.14200
F1028       F  0.30721686  0.45953050  0.11620399    -0.13100
F1029       F  0.40916137  0.52557154  0.11853095    -0.13600
F1030       F  0.34958352  0.44999884  0.07510760    -0.15900
F1031       F  0.36862639  0.53280449  0.16159632    -0.14400
F1032       F  0.30749227  0.45310128  0.17604210    -0.14400
F1033       F  0.27139050  0.56869083  0.18491405    -0.15900
C1034       C  0.63294790  0.52117447  0.12451074     0.14200
C1035       C  0.64765546  0.49481949  0.13109686     0.01200
C1036       C  0.63899575  0.46871685  0.11694398     0.16100
C1037       C  0.61657745  0.46901630  0.09592407     0.25600
C1038       C  0.60229694  0.49557463  0.08843765    -0.40800
C1039       C  0.61044645  0.52160402  0.10351016     0.32600
C1040       C  0.67411126  0.49505455  0.15015579     0.01200
F1041       F  0.65279467  0.44292068  0.12308694    -0.13100
F1042       F  0.59712882  0.54771235  0.09788816    -0.13600
C1043       C  0.67245069  0.50265552  0.18000003     0.16200
C1044       C  0.69820049  0.50443754  0.19706748     0.25600
C1045       C  0.72582144  0.49893949  0.18432411    -0.40700
C1046       C  0.72719608  0.49066718  0.15467488     0.32500
C1047       C  0.70167168  0.48874121  0.13781524     0.14200
F1048       F  0.64601838  0.50898355  0.19234957    -0.13100
F1049       F  0.75358931  0.48546823  0.14168141    -0.13600
F1050       F  0.69634301  0.51328142  0.22537910    -0.15900
F1051       F  0.70402104  0.48215687  0.10892254    -0.14400
F1052       F  0.64129380  0.54682857  0.13749053    -0.14400
F1053       F  0.60950364  0.44328414  0.08239768    -0.15900
loop_ 
_geom_bond_atom_site_label_1 
_geom_bond_atom_site_label_2 
_geom_bond_distance 
_geom_bond_site_symmetry_2 
_ccdc_geom_bond_type 
C1           N19   1.354       .  A
C1           C38   1.467       .  S
C1          C905   1.494       .  S
N2           N19   1.328       .  A
N2           N24   1.321       .  A
N2          Co39   2.097       .  S
C3           N28   1.337       .  A
C3           C41   1.459       .  S
C3           H48   1.081       .  S
H4           C45   1.079       .  S
C5           N29   1.345       .  A
C5            C9   1.472       .  S
C5           H34   1.080       .  S
Co6          N24   2.103   1_556  S
Co6          N14   2.094   1_556  S
Co6          N46   2.090       .  S
Co6          N22   2.100       .  S
Co6         Cl50   2.456   1_556  S
N7           C45   1.341       .  A
N7           N14   1.318       .  A
N7           Co8   2.086   1_554  S
Co8          N11   2.075   1_556  S
Co8          N28   2.072       .  S
Co8          N15   2.087       .  S
Co8         Cl50   2.452   1_556  S
C9           N47   1.349       .  A
C9          C918   1.492       .  S
N10          N17   1.322       .  A
N10          N40   1.326       .  A
N10         Co43   2.094       .  S
N11          N29   1.318       .  A
N11          N47   1.322       .  A
N12          C41   1.355       .  A
N12          N22   1.328       .  A
H13          C38   1.081       .  S
N14          N35   1.325       .  A
N15          N33   1.318       .  A
N15          N20   1.324       .  A
C16          N20   1.352       .  A
C16          C44   1.471       .  S
C16         C938   1.497       .  S
N17          C32   1.347       .  A
N17         Co39   2.104       .  S
C18          N46   1.343       .  A
C18          C21   1.461       .  S
C18          H52   1.081       .  S
C21          N42   1.354       .  A
C21         C978   1.489       .  S
N22          N28   1.318       .  A
N23          C49   1.341       .  A
N23          N25   1.319       .  A
N23         Co39   2.086   1_556  S
N24          C38   1.344       .  A
N25          N53   1.326       .  A
N25         Co43   2.100   1_556  S
H26          C49   1.080       .  S
H27          C44   1.080       .  S
N29         Co43   2.100       .  S
N30          N42   1.329       .  A
N30          N46   1.321       .  A
N30         Co39   2.105   1_556  S
C31          N35   1.354       .  A
C31          C45   1.466       .  S
C31        C1038   1.494       .  S
C32          C51   1.466       .  S
C32          H36   1.082       .  S
N33          C44   1.345       .  A
N33         Co43   2.097   1_556  S
C37          N53   1.355       .  A
C37          C49   1.466       .  S
C37        C1005   1.495       .  S
Co39        Cl50   2.459       .  S
N40          C51   1.350       .  A
C41         C958   1.486       .  S
Co43        Cl50   2.454       .  S
C51        C1025   1.486       .  S
C54          N55   1.374       .  A
C54          N59   1.354       .  A
C54        C1018   1.495       .  S
N55          C56   1.375       .  A
C56          N57   1.359       .  A
C56         C858   1.491       .  S
N57          C58   1.353       .  A
C58          N59   1.348       .  A
C58         C878   1.480       .  S
C60          N61   1.367       .  A
C60          N65   1.354       .  A
C60        C1045   1.477       .  S
N61          C62   1.368       .  A
C62          N63   1.358       .  A
C62         C818   1.478       .  S
N63          C64   1.352       .  A
C64          N65   1.350       .  A
C64         C845   1.478       .  S
C66          N67   1.373       .  A
C66          N71   1.358       .  A
C66         C778   1.495       .  S
N67          C68   1.373       .  A
C68          N69   1.355       .  A
C68         C998   1.481       .  S
N69          C70   1.351       .  A
C70          N71   1.351       .  A
C70         C798   1.484       .  S
C72          N73   1.365       .  A
C72          N77   1.357       .  A
C72         C738   1.474       .  S
N73          C74   1.366       .  A
C74          N75   1.357       .  A
C74         C965   1.487       .  S
N75          C76   1.353       .  A
C76          N77   1.355       .  A
C76         C758   1.492       .  S
N78          C83   1.351   1_655  A
N78          C82   1.351       .  A
N78         H110   1.031       .  S
N79          C86   1.350   1_554  A
N79          C87   1.351       .  A
N80          C85   1.349   1_655  A
N80          C84   1.349       .  A
N80         H111   1.032       .  S
N81          C88   1.350   1_554  A
N81          C89   1.350       .  A
C82          C90   1.386       .  A
C82          C98   1.410       .  A
C83          C99   1.413       .  A
C83          C91   1.387       .  A
C84          C92   1.385       .  A
C84         C101   1.406       .  A
C85         C100   1.409       .  A
C85          C93   1.387       .  A
C86          C98   1.409       .  A
C86          C94   1.386       .  A
C87         C101   1.412       .  A
C87          C95   1.387       .  A
C88          C96   1.386       .  A
C88          C99   1.412       .  A
C89          C97   1.387       .  A
C89         C100   1.411       .  A
C90         H102   1.083       .  S
C90          C91   1.376   1_655  A
C91         H103   1.082       .  S
C92         H104   1.083       .  S
C92          C93   1.376   1_655  A
C93         H105   1.082       .  S
C94         H106   1.082       .  S
C94          C95   1.373   1_556  A
C95         H107   1.082       .  S
C96         H108   1.082       .  S
C96          C97   1.374   1_556  A
C97         H109   1.082       .  S
C98         C765   1.478       .  S
C99         C805   1.487       .  S
C100        C885   1.480       .  S
C101        C838   1.483       .  S
C112        N130   1.359       .  A
C112        C149   1.469       .  S
C112        C865   1.507       .  S
N113        N130   1.331       .  A
N113        N135   1.321       .  A
N113       Co150   2.117   1_455  S
C114        N139   1.342       .  A
C114        C152   1.462       .  S
C114        H159   1.081       .  S
H115        C156   1.079       .  S
C116        N140   1.346       .  A
C116        C120   1.466       .  S
C116        H145   1.081       .  S
Co117       N135   2.102   1_655  S
Co117       N125   2.095   1_655  S
Co117       N157   2.091       .  S
Co117       N133   2.106       .  S
Co117      Cl161   2.461       .  S
N118        C156   1.342       .  A
N118        N125   1.319       .  A
N118       Co119   2.090   1_455  S
Co119       N122   2.104   1_655  S
Co119       N139   2.095       .  S
Co119       N126   2.088       .  S
Co119      Cl161   2.456       .  S
C120        N158   1.355       .  A
C120        C785   1.495       .  S
N121        N128   1.323       .  A
N121        N151   1.325       .  A
N121       Co154   2.097   1_455  S
N122        N140   1.321       .  A
N122        N158   1.328       .  A
N123        C152   1.356       .  A
N123        N133   1.330       .  A
H124        C149   1.080       .  S
N125        N146   1.326       .  A
N126        N144   1.318       .  A
N126        N131   1.324       .  A
C127        N131   1.351       .  A
C127        C155   1.471       .  S
C127        C745   1.496       .  S
N128        C143   1.346       .  A
N128       Co150   2.098   1_455  S
C129        N157   1.342       .  A
C129        C132   1.470       .  S
C129        H163   1.080       .  S
C132        N153   1.354       .  A
C132        C825   1.497       .  S
N133        N139   1.321       .  A
N134        C160   1.346       .  A
N134        N136   1.321       .  A
N134       Co150   2.099       .  S
N135        C149   1.343       .  A
N136        N164   1.322       .  A
N136       Co154   2.086       .  S
H137        C160   1.081       .  S
H138        C155   1.081       .  S
N140       Co154   2.099   1_455  S
N141        N153   1.326       .  A
N141        N157   1.319       .  A
N141       Co150   2.095       .  S
C142        N146   1.354       .  A
C142        C156   1.469       .  S
C142        C725   1.497       .  S
C143        C162   1.466       .  S
C143        H147   1.081       .  S
N144        C155   1.348       .  A
N144       Co154   2.100       .  S
C148        N164   1.350       .  A
C148        C160   1.469       .  S
C148        C658   1.490       .  S
Co150      Cl161   2.464       .  S
N151        C162   1.351       .  A
C152        C678   1.494       .  S
Co154      Cl161   2.456       .  S
C162        C698   1.487       .  S
C165        N166   1.358       .  A
C165        N170   1.365       .  A
C165        C618   1.480       .  S
N166        C167   1.355       .  A
C167        N168   1.354       .  A
C167        C645   1.489       .  S
N168        C169   1.356       .  A
C169        N170   1.364       .  A
C169        C925   1.471       .  S
C171        N172   1.371       .  A
C171        N176   1.359       .  A
C171        C898   1.479       .  S
N172        C173   1.369       .  A
C173        N174   1.354       .  A
C173        C578   1.485       .  S
N174        C175   1.351       .  A
C175        N176   1.354       .  A
C175        C605   1.487       .  S
C177        N178   1.353       .  A
C177        N182   1.372       .  A
C177        C985   1.483       .  S
N178        C179   1.349       .  A
C179        N180   1.352       .  A
C179        C558   1.482       .  S
N180        C181   1.357       .  A
C181        N182   1.372       .  A
C181        C538   1.486       .  S
C183        N184   1.366       .  A
C183        N188   1.355       .  A
C183        C498   1.471       .  S
N184        C185   1.367       .  A
C185        N186   1.357       .  A
C185        C945   1.476       .  S
N186        C187   1.354       .  A
C187        N188   1.352       .  A
C187        C518   1.482       .  S
N189        C194   1.352   1_556  A
N189        C193   1.351       .  A
N189        H221   1.040       .  S
N190        C197   1.348   1_565  A
N190        C198   1.348       .  A
N191        C196   1.353   1_556  A
N191        C195   1.354       .  A
N191        H222   1.040       .  S
N192        C199   1.350   1_565  A
N192        C200   1.348       .  A
C193        C201   1.386       .  A
C193        C209   1.407       .  A
C194        C210   1.411       .  A
C194        C202   1.388       .  A
C195        C203   1.386       .  A
C195        C212   1.413       .  A
C196        C211   1.414       .  A
C196        C204   1.388       .  A
C197        C209   1.405       .  A
C197        C205   1.386       .  A
C198        C212   1.407       .  A
C198        C206   1.386       .  A
C199        C207   1.385       .  A
C199        C210   1.409       .  A
C200        C208   1.387       .  A
C200        C211   1.409       .  A
C201        H213   1.082       .  S
C201        C202   1.370   1_556  A
C202        H214   1.082       .  S
C203        H215   1.082       .  S
C203        C204   1.374   1_556  A
C204        H216   1.082       .  S
C205        H217   1.082       .  S
C205        C206   1.371   1_545  A
C206        H218   1.083       .  S
C207        H219   1.082       .  S
C207        C208   1.373   1_545  A
C208        H220   1.083       .  S
C209        C565   1.473       .  S
C210        C598   1.482       .  S
C211        C638   1.479       .  S
C212        C525   1.482       .  S
C223        N224   1.372       .  A
C223        N228   1.358       .  A
C223        C718   1.478       .  S
N224        C225   1.371       .  A
C225        N226   1.356       .  A
C225        C465   1.503       .  S
N226        C227   1.349       .  A
C227        N228   1.351       .  A
C227        C478   1.477       .  S
C229        N230   1.357       .  A
C229        N234   1.363       .  A
C229        C418   1.483       .  S
N230        C231   1.355       .  A
C231        N232   1.359       .  A
C231        C445   1.495       .  S
N232        C233   1.360       .  A
C233        N234   1.364       .  A
C233        C665   1.474       .  S
C235        N236   1.372       .  A
C235        N240   1.360       .  A
C235        C705   1.492       .  S
N236        C237   1.371       .  A
C237        N238   1.359       .  A
C237        C385   1.498       .  S
N238        C239   1.353       .  A
C239        N240   1.353       .  A
C239        C398   1.486       .  S
C241        N242   1.373       .  A
C241        N246   1.359       .  A
C241        C338   1.490       .  S
N242        C243   1.372       .  A
C243        N244   1.356       .  A
C243        C685   1.490       .  S
N244        C245   1.352       .  A
C245        N246   1.354       .  A
C245        C365   1.491       .  S
N247        C252   1.355       .  A
N247        C251   1.353       .  A
N247        H279   1.037       .  S
N248        C255   1.350       .  A
N248        C256   1.350   1_655  A
N249        C254   1.354       .  A
N249        C253   1.353       .  A
N249        H280   1.036       .  S
N250        C257   1.349       .  A
N250        C258   1.349   1_655  A
C251        C259   1.388       .  A
C251        C267   1.415       .  A
C252        C268   1.413   1_565  A
C252        C260   1.386       .  A
C253        C261   1.389       .  A
C253        C270   1.416       .  A
C254        C269   1.412   1_565  A
C254        C262   1.386       .  A
C255        C267   1.409       .  A
C255        C263   1.386       .  A
C256        C270   1.410       .  A
C256        C264   1.386   1_455  A
C257        C265   1.386       .  A
C257        C268   1.408       .  A
C258        C266   1.385   1_455  A
C258        C269   1.407       .  A
C259        H271   1.082       .  S
C259        C260   1.374       .  A
C260        H272   1.082       .  S
C261        H273   1.082       .  S
C261        C262   1.375       .  A
C262        H274   1.082       .  S
C263        H275   1.083       .  S
C263        C264   1.373       .  A
C264        H276   1.082   1_655  S
C265        H277   1.083       .  S
C265        C266   1.372       .  A
C266        H278   1.082   1_655  S
C267        C358   1.482       .  S
C268        C438   1.487       .  S
C269        C405   1.483       .  S
C270        C485   1.485       .  S
C281        N299   1.355       .  A
C281        C318   1.469       .  S
C281        C625   1.497       .  S
N282        N299   1.327       .  A
N282        N304   1.320       .  A
N282       Co319   2.097       .  S
C283        N308   1.344       .  A
C283        C321   1.471       .  S
C283        H328   1.080       .  S
H284        C325   1.081       .  S
C285        N309   1.339       .  A
C285        C289   1.460       .  S
C285        H314   1.081       .  S
Co286       N304   2.094       .  S
Co286       N294   2.112       .  S
Co286       N326   2.102   1_565  S
Co286       N302   2.096   1_565  S
Co286      Cl330   2.455       .  S
N287        C325   1.344       .  A
N287        N294   1.321       .  A
N287       Co288   2.103       .  S
Co288       N291   2.097       .  S
Co288       N308   2.100   1_565  S
Co288       N295   2.106   1_565  S
Co288      Cl330   2.463       .  S
C289        N327   1.353       .  A
C289        C505   1.485       .  S
N290        N297   1.320       .  A
N290        N320   1.327       .  A
N290       Co323   2.101       .  S
N291        N309   1.320       .  A
N291        N327   1.326       .  A
N292        C321   1.354       .  A
N292        N302   1.327       .  A
H293        C318   1.079       .  S
N294        N315   1.331       .  A
N295        N313   1.320       .  A
N295        N300   1.329       .  A
C296        N300   1.358       .  A
C296        C324   1.466       .  S
C296        C545   1.501       .  S
N297        C312   1.346       .  A
N297       Co319   2.097       .  S
C298        N326   1.344       .  A
C298        C301   1.464       .  S
C298        H332   1.081       .  S
C301        N322   1.351       .  A
C301        C585   1.487       .  S
N302        N308   1.320       .  A
N303        C329   1.346       .  A
N303        N305   1.319       .  A
N303       Co319   2.104   1_545  S
N304        C318   1.341       .  A
N305        N333   1.325       .  A
N305       Co323   2.087   1_545  S
H306        C329   1.080       .  S
H307        C324   1.080       .  S
N309       Co323   2.080       .  S
N310        N322   1.328       .  A
N310        N326   1.322       .  A
N310       Co319   2.094   1_545  S
C311        N315   1.357       .  A
C311        C325   1.467       .  S
C311        C345   1.502       .  S
C312        C331   1.468       .  S
C312        H316   1.081       .  S
N313        C324   1.340       .  A
N313       Co323   2.091   1_545  S
C317        N333   1.352       .  A
C317        C329   1.474       .  S
C317        C378   1.499       .  S
Co319      Cl330   2.467       .  S
N320        C331   1.354       .  A
C321        C425   1.499       .  S
Co323      Cl330   2.450       .  S
C331        C458   1.497       .  S
C334        C335   1.414       .  A
C334        C339   1.412       .  A
C334        F352   1.357       .  S
C335        C340   1.503       .  S
C335        C336   1.407       .  A
C336        C337   1.401       .  A
C336        F341   1.358       .  S
C337        C338   1.409       .  A
C337        F353   1.358       .  S
C338        C339   1.406       .  A
C339        F342   1.357       .  S
C340        C343   1.408       .  A
C340        C347   1.410       .  A
C343        C344   1.407       .  A
C343        F348   1.358       .  S
C344        C345   1.412       .  A
C344        F350   1.357       .  S
C345        C346   1.411       .  A
C346        C347   1.408       .  A
C346        F349   1.357       .  S
C347        F351   1.358       .  S
C354        C355   1.405       .  A
C354        C359   1.401       .  A
C354        F372   1.357       .  S
C355        C360   1.475       .  S
C355        C356   1.404       .  A
C356        C357   1.393       .  A
C356        F361   1.358       .  S
C357        C358   1.404       .  A
C357        F373   1.358       .  S
C358        C359   1.405       .  A
C359        F362   1.357       .  S
C360        C363   1.402       .  A
C360        C367   1.400       .  A
C363        C364   1.399       .  A
C363        F368   1.358       .  S
C364        C365   1.414       .  A
C364        F370   1.358       .  S
C365        C366   1.415       .  A
C366        C367   1.397       .  A
C366        F369   1.358       .  S
C367        F371   1.358       .  S
C374        C375   1.404       .  A
C374        C379   1.404       .  A
C374        F392   1.358       .  S
C375        C380   1.490       .  S
C375        C376   1.405       .  A
C376        C377   1.405       .  A
C376        F381   1.358       .  S
C377        C378   1.412       .  A
C377        F393   1.355       .  S
C378        C379   1.415       .  A
C379        F382   1.358       .  S
C380        C383   1.409       .  A
C380        C387   1.400       .  A
C383        C384   1.413       .  A
C383        F388   1.357       .  S
C384        C385   1.412       .  A
C384        F390   1.357       .  S
C385        C386   1.413       .  A
C386        C387   1.396       .  A
C386        F389   1.357       .  S
C387        F391   1.358       .  S
C394        C395   1.401       .  A
C394        C399   1.398       .  A
C394        F412   1.358       .  S
C395        C400   1.475       .  S
C395        C396   1.402       .  A
C396        C397   1.400       .  A
C396        F401   1.358       .  S
C397        C398   1.411       .  A
C397        F413   1.357       .  S
C398        C399   1.412       .  A
C399        F402   1.357       .  S
C400        C403   1.405       .  A
C400        C407   1.403       .  A
C403        C404   1.400       .  A
C403        F408   1.357       .  S
C404        C405   1.403       .  A
C404        F410   1.357       .  S
C405        C406   1.406       .  A
C406        C407   1.398       .  A
C406        F409   1.358       .  S
C407        F411   1.358       .  S
C414        C415   1.410       .  A
C414        C419   1.407       .  A
C414        F432   1.357       .  S
C415        C420   1.492       .  S
C415        C416   1.406       .  A
C416        C417   1.397       .  A
C416        F421   1.358       .  S
C417        C418   1.407       .  A
C417        F433   1.358       .  S
C418        C419   1.407       .  A
C419        F422   1.358       .  S
C420        C423   1.406       .  A
C420        C427   1.406       .  A
C423        C424   1.404       .  A
C423        F428   1.358       .  S
C424        C425   1.413       .  A
C424        F430   1.357       .  S
C425        C426   1.412       .  A
C426        C427   1.404       .  A
C426        F429   1.356       .  S
C427        F431   1.358       .  S
C434        C435   1.404       .  A
C434        C439   1.394       .  A
C434        F452   1.358       .  S
C435        C440   1.480       .  S
C435        C436   1.408       .  A
C436        C437   1.403       .  A
C436        F441   1.357       .  S
C437        C438   1.405       .  A
C437        F453   1.357       .  S
C438        C439   1.406       .  A
C439        F442   1.358       .  S
C440        C443   1.401       .  A
C440        C447   1.404       .  A
C443        C444   1.399       .  A
C443        F448   1.358       .  S
C444        C445   1.416       .  A
C444        F450   1.358       .  S
C445        C446   1.413       .  A
C446        C447   1.400       .  A
C446        F449   1.357       .  S
C447        F451   1.358       .  S
C454        C455   1.408       .  A
C454        C459   1.407       .  A
C454        F472   1.358       .  S
C455        C460   1.498       .  S
C455        C456   1.409       .  A
C456        C457   1.402       .  A
C456        F461   1.358       .  S
C457        C458   1.409       .  A
C457        F473   1.357       .  S
C458        C459   1.412       .  A
C459        F462   1.356       .  S
C460        C463   1.411       .  A
C460        C467   1.403       .  A
C463        C464   1.412       .  A
C463        F468   1.357       .  S
C464        C465   1.412       .  A
C464        F470   1.357       .  S
C465        C466   1.418       .  A
C466        C467   1.395       .  A
C466        F469   1.358       .  S
C467        F471   1.358       .  S
C474        C475   1.404       .  A
C474        C479   1.400       .  A
C474        F492   1.358       .  S
C475        C480   1.473       .  S
C475        C476   1.402       .  A
C476        C477   1.394       .  A
C476        F481   1.358       .  S
C477        C478   1.408       .  A
C477        F493   1.358       .  S
C478        C479   1.409       .  A
C479        F482   1.358       .  S
C480        C483   1.406       .  A
C480        C487   1.403       .  A
C483        C484   1.400       .  A
C483        F488   1.358       .  S
C484        C485   1.405       .  A
C484        F490   1.358       .  S
C485        C486   1.406       .  A
C486        C487   1.394       .  A
C486        F489   1.358       .  S
C487        F491   1.358       .  S
C494        C495   1.409       .  A
C494        C499   1.402       .  A
C494        F512   1.358       .  S
C495        C500   1.489       .  S
C495        C496   1.407       .  A
C496        C497   1.400       .  A
C496        F501   1.358       .  S
C497        C498   1.404       .  A
C497        F513   1.358       .  S
C498        C499   1.404       .  A
C499        F502   1.358       .  S
C500        C503   1.409       .  A
C500        C507   1.405       .  A
C503        C504   1.401       .  A
C503        F508   1.358       .  S
C504        C505   1.407       .  A
C504        F510   1.358       .  S
C505        C506   1.410       .  A
C506        C507   1.400       .  A
C506        F509   1.356       .  S
C507        F511   1.357       .  S
C514        C515   1.405       .  A
C514        C519   1.397       .  A
C514        F532   1.358       .  S
C515        C520   1.480       .  S
C515        C516   1.404       .  A
C516        C517   1.397       .  A
C516        F521   1.358       .  S
C517        C518   1.409       .  A
C517        F533   1.358       .  S
C518        C519   1.411       .  A
C519        F522   1.358       .  S
C520        C523   1.406       .  A
C520        C527   1.408       .  A
C523        C524   1.394       .  A
C523        F528   1.358       .  S
C524        C525   1.404       .  A
C524        F530   1.358       .  S
C525        C526   1.402       .  A
C526        C527   1.400       .  A
C526        F529   1.357       .  S
C527        F531   1.358       .  S
C534        C535   1.410       .  A
C534        C539   1.409       .  A
C534        F552   1.357       .  S
C535        C540   1.492       .  S
C535        C536   1.404       .  A
C536        C537   1.400       .  A
C536        F541   1.358       .  S
C537        C538   1.410       .  A
C537        F553   1.358       .  S
C538        C539   1.407       .  A
C539        F542   1.357       .  S
C540        C543   1.406       .  A
C540        C547   1.404       .  A
C543        C544   1.405       .  A
C543        F548   1.358       .  S
C544        C545   1.412       .  A
C544        F550   1.357       .  S
C545        C546   1.415       .  A
C546        C547   1.404       .  A
C546        F549   1.355       .  S
C547        F551   1.358       .  S
C554        C555   1.400       .  A
C554        C559   1.396       .  A
C554        F572   1.358       .  S
C555        C560   1.465       .  S
C555        C556   1.398       .  A
C556        C557   1.393       .  A
C556        F561   1.358       .  S
C557        C558   1.414       .  A
C557        F573   1.358       .  S
C558        C559   1.412       .  A
C559        F562   1.358       .  S
C560        C563   1.404       .  A
C560        C567   1.402       .  A
C563        C564   1.394       .  A
C563        F568   1.358       .  S
C564        C565   1.400       .  A
C564        F570   1.357       .  S
C565        C566   1.404       .  A
C566        C567   1.394       .  A
C566        F569   1.358       .  S
C567        F571   1.358       .  S
C574        C575   1.412       .  A
C574        C579   1.412       .  A
C574        F592   1.357       .  S
C575        C580   1.495       .  S
C575        C576   1.405       .  A
C576        C577   1.395       .  A
C576        F581   1.358       .  S
C577        C578   1.408       .  A
C577        F593   1.358       .  S
C578        C579   1.408       .  A
C579        F582   1.357       .  S
C580        C583   1.409       .  A
C580        C587   1.408       .  A
C583        C584   1.406       .  A
C583        F588   1.358       .  S
C584        C585   1.409       .  A
C584        F590   1.358       .  S
C585        C586   1.406       .  A
C586        C587   1.402       .  A
C586        F589   1.358       .  S
C587        F591   1.358       .  S
C594        C595   1.406       .  A
C594        C599   1.399       .  A
C594        F612   1.358       .  S
C595        C600   1.477       .  S
C595        C596   1.405       .  A
C596        C597   1.394       .  A
C596        F601   1.358       .  S
C597        C598   1.404       .  A
C597        F613   1.358       .  S
C598        C599   1.405       .  A
C599        F602   1.358       .  S
C600        C603   1.405       .  A
C600        C607   1.401       .  A
C603        C604   1.400       .  A
C603        F608   1.358       .  S
C604        C605   1.412       .  A
C604        F610   1.358       .  S
C605        C606   1.413       .  A
C606        C607   1.393       .  A
C606        F609   1.358       .  S
C607        F611   1.358       .  S
C614        C615   1.403       .  A
C614        C619   1.399       .  A
C614        F632   1.358       .  S
C615        C620   1.483       .  S
C615        C616   1.407       .  A
C616        C617   1.405       .  A
C616        F621   1.357       .  S
C617        C618   1.405       .  A
C617        F633   1.357       .  S
C618        C619   1.409       .  A
C619        F622   1.359       .  S
C620        C623   1.403       .  A
C620        C627   1.402       .  A
C623        C624   1.405       .  A
C623        F628   1.358       .  S
C624        C625   1.414       .  A
C624        F630   1.358       .  S
C625        C626   1.413       .  A
C626        C627   1.399       .  A
C626        F629   1.355       .  S
C627        F631   1.358       .  S
C634        C635   1.406       .  A
C634        C639   1.401       .  A
C634        F652   1.357       .  S
C635        C640   1.473       .  S
C635        C636   1.404       .  A
C636        C637   1.392       .  A
C636        F641   1.358       .  S
C637        C638   1.403       .  A
C637        F653   1.358       .  S
C638        C639   1.403       .  A
C639        F642   1.357       .  S
C640        C643   1.401       .  A
C640        C647   1.401       .  A
C643        C644   1.396       .  A
C643        F648   1.358       .  S
C644        C645   1.413       .  A
C644        F650   1.358       .  S
C645        C646   1.415       .  A
C646        C647   1.398       .  A
C646        F649   1.358       .  S
C647        F651   1.358       .  S
C654        C655   1.408       .  A
C654        C659   1.405       .  A
C654        F672   1.358       .  S
C655        C660   1.489       .  S
C655        C656   1.404       .  A
C656        C657   1.397       .  A
C656        F661   1.358       .  S
C657        C658   1.411       .  A
C657        F673   1.358       .  S
C658        C659   1.411       .  A
C659        F662   1.357       .  S
C660        C663   1.408       .  A
C660        C667   1.410       .  A
C663        C664   1.401       .  A
C663        F668   1.358       .  S
C664        C665   1.403       .  A
C664        F670   1.358       .  S
C665        C666   1.403       .  A
C666        C667   1.403       .  A
C666        F669   1.358       .  S
C667        F671   1.358       .  S
C674        C675   1.408       .  A
C674        C679   1.406       .  A
C674        F692   1.358       .  S
C675        C680   1.499       .  S
C675        C676   1.410       .  A
C676        C677   1.405       .  A
C676        F681   1.358       .  S
C677        C678   1.407       .  A
C677        F693   1.357       .  S
C678        C679   1.411       .  A
C679        F682   1.357       .  S
C680        C683   1.405       .  A
C680        C687   1.414       .  A
C683        C684   1.396       .  A
C683        F688   1.358       .  S
C684        C685   1.409       .  A
C684        F690   1.358       .  S
C685        C686   1.408       .  A
C686        C687   1.414       .  A
C686        F689   1.357       .  S
C687        F691   1.357       .  S
C694        C695   1.410       .  A
C694        C699   1.406       .  A
C694        F712   1.358       .  S
C695        C700   1.496       .  S
C695        C696   1.408       .  A
C696        C697   1.401       .  A
C696        F701   1.357       .  S
C697        C698   1.407       .  A
C697        F713   1.358       .  S
C698        C699   1.409       .  A
C699        F702   1.357       .  S
C700        C703   1.410       .  A
C700        C707   1.406       .  A
C703        C704   1.409       .  A
C703        F708   1.357       .  S
C704        C705   1.408       .  A
C704        F710   1.357       .  S
C705        C706   1.411       .  A
C706        C707   1.400       .  A
C706        F709   1.358       .  S
C707        F711   1.358       .  S
C714        C715   1.406       .  A
C714        C719   1.401       .  A
C714        F732   1.358       .  S
C715        C720   1.491       .  S
C715        C716   1.409       .  A
C716        C717   1.405       .  A
C716        F721   1.357       .  S
C717        C718   1.404       .  A
C717        F733   1.357       .  S
C718        C719   1.407       .  A
C719        F722   1.358       .  S
C720        C723   1.405       .  A
C720        C727   1.406       .  A
C723        C724   1.404       .  A
C723        F728   1.358       .  S
C724        C725   1.413       .  A
C724        F730   1.358       .  S
C725        C726   1.412       .  A
C726        C727   1.401       .  A
C726        F729   1.355       .  S
C727        F731   1.358       .  S
C734        C735   1.412       .  A
C734        C739   1.401       .  A
C734        F752   1.358       .  S
C735        C740   1.500       .  S
C735        C736   1.412       .  A
C736        C737   1.404       .  A
C736        F741   1.357       .  S
C737        C738   1.404       .  A
C737        F753   1.358       .  S
C738        C739   1.401       .  A
C739        F742   1.358       .  S
C740        C743   1.409       .  A
C740        C747   1.410       .  A
C743        C744   1.400       .  A
C743        F748   1.358       .  S
C744        C745   1.410       .  A
C744        F750   1.358       .  S
C745        C746   1.411       .  A
C746        C747   1.408       .  A
C746        F749   1.356       .  S
C747        F751   1.358       .  S
C754        C755   1.402       .  A
C754        C759   1.398       .  A
C754        F772   1.358       .  S
C755        C760   1.475       .  S
C755        C756   1.400       .  A
C756        C757   1.397       .  A
C756        F761   1.358       .  S
C757        C758   1.416       .  A
C757        F773   1.357       .  S
C758        C759   1.413       .  A
C759        F762   1.357       .  S
C760        C763   1.406       .  A
C760        C767   1.404       .  A
C763        C764   1.400       .  A
C763        F768   1.358       .  S
C764        C765   1.403       .  A
C764        F770   1.357       .  S
C765        C766   1.403       .  A
C766        C767   1.394       .  A
C766        F769   1.358       .  S
C767        F771   1.358       .  S
C774        C775   1.415       .  A
C774        C779   1.414       .  A
C774        F792   1.357       .  S
C775        C780   1.505       .  S
C775        C776   1.407       .  A
C776        C777   1.397       .  A
C776        F781   1.358       .  S
C777        C778   1.410       .  A
C777        F793   1.358       .  S
C778        C779   1.409       .  A
C779        F782   1.357       .  S
C780        C783   1.411       .  A
C780        C787   1.411       .  A
C783        C784   1.410       .  A
C783        F788   1.358       .  S
C784        C785   1.411       .  A
C784        F790   1.358       .  S
C785        C786   1.406       .  A
C786        C787   1.403       .  A
C786        F789   1.358       .  S
C787        F791   1.357       .  S
C794        C795   1.400       .  A
C794        C799   1.396       .  A
C794        F812   1.358       .  S
C795        C800   1.471       .  S
C795        C796   1.401       .  A
C796        C797   1.398       .  A
C796        F801   1.358       .  S
C797        C798   1.412       .  A
C797        F813   1.358       .  S
C798        C799   1.412       .  A
C799        F802   1.358       .  S
C800        C803   1.403       .  A
C800        C807   1.402       .  A
C803        C804   1.399       .  A
C803        F808   1.358       .  S
C804        C805   1.407       .  A
C804        F810   1.357       .  S
C805        C806   1.408       .  A
C806        C807   1.396       .  A
C806        F809   1.358       .  S
C807        F811   1.358       .  S
C814        C815   1.404       .  A
C814        C819   1.397       .  A
C814        F832   1.358       .  S
C815        C820   1.487       .  S
C815        C816   1.409       .  A
C816        C817   1.405       .  A
C816        F821   1.357       .  S
C817        C818   1.404       .  A
C817        F833   1.357       .  S
C818        C819   1.408       .  A
C819        F822   1.359       .  S
C820        C823   1.404       .  A
C820        C827   1.404       .  A
C823        C824   1.401       .  A
C823        F828   1.358       .  S
C824        C825   1.412       .  A
C824        F830   1.355       .  S
C825        C826   1.414       .  A
C826        C827   1.404       .  A
C826        F829   1.357       .  S
C827        F831   1.358       .  S
C834        C835   1.401       .  A
C834        C839   1.392       .  A
C834        F852   1.358       .  S
C835        C840   1.471       .  S
C835        C836   1.406       .  A
C836        C837   1.399       .  A
C836        F841   1.358       .  S
C837        C838   1.405       .  A
C837        F853   1.357       .  S
C838        C839   1.407       .  A
C839        F842   1.358       .  S
C840        C843   1.403       .  A
C840        C847   1.401       .  A
C843        C844   1.399       .  A
C843        F848   1.358       .  S
C844        C845   1.410       .  A
C844        F850   1.358       .  S
C845        C846   1.409       .  A
C846        C847   1.392       .  A
C846        F849   1.358       .  S
C847        F851   1.358       .  S
C854        C855   1.413       .  A
C854        C859   1.412       .  A
C854        F872   1.357       .  S
C855        C860   1.501       .  S
C855        C856   1.406       .  A
C856        C857   1.402       .  A
C856        F861   1.358       .  S
C857        C858   1.409       .  A
C857        F873   1.358       .  S
C858        C859   1.407       .  A
C859        F862   1.357       .  S
C860        C863   1.406       .  A
C860        C867   1.408       .  A
C863        C864   1.406       .  A
C863        F868   1.358       .  S
C864        C865   1.415       .  A
C864        F870   1.356       .  S
C865        C866   1.413       .  A
C866        C867   1.409       .  A
C866        F869   1.357       .  S
C867        F871   1.358       .  S
C874        C875   1.404       .  A
C874        C879   1.398       .  A
C874        F892   1.358       .  S
C875        C880   1.474       .  S
C875        C876   1.402       .  A
C876        C877   1.393       .  A
C876        F881   1.358       .  S
C877        C878   1.411       .  A
C877        F893   1.358       .  S
C878        C879   1.409       .  A
C879        F882   1.358       .  S
C880        C883   1.406       .  A
C880        C887   1.405       .  A
C883        C884   1.399       .  A
C883        F888   1.358       .  S
C884        C885   1.404       .  A
C884        F890   1.358       .  S
C885        C886   1.404       .  A
C886        C887   1.392       .  A
C886        F889   1.358       .  S
C887        F891   1.358       .  S
C894        C895   1.411       .  A
C894        C899   1.406       .  A
C894        F912   1.358       .  S
C895        C900   1.499       .  S
C895        C896   1.410       .  A
C896        C897   1.403       .  A
C896        F901   1.357       .  S
C897        C898   1.404       .  A
C897        F913   1.358       .  S
C898        C899   1.406       .  A
C899        F902   1.358       .  S
C900        C903   1.409       .  A
C900        C907   1.409       .  A
C903        C904   1.403       .  A
C903        F908   1.358       .  S
C904        C905   1.409       .  A
C904        F910   1.357       .  S
C905        C906   1.410       .  A
C906        C907   1.406       .  A
C906        F909   1.358       .  S
C907        F911   1.358       .  S
C914        C915   1.403       .  A
C914        C919   1.399       .  A
C914        F932   1.358       .  S
C915        C920   1.485       .  S
C915        C916   1.405       .  A
C916        C917   1.402       .  A
C916        F921   1.358       .  S
C917        C918   1.410       .  A
C917        F933   1.355       .  S
C918        C919   1.414       .  A
C919        F922   1.358       .  S
C920        C923   1.405       .  A
C920        C927   1.410       .  A
C923        C924   1.396       .  A
C923        F928   1.358       .  S
C924        C925   1.403       .  A
C924        F930   1.358       .  S
C925        C926   1.404       .  A
C926        C927   1.405       .  A
C926        F929   1.358       .  S
C927        F931   1.358       .  S
C934        C935   1.405       .  A
C934        C939   1.401       .  A
C934        F952   1.358       .  S
C935        C940   1.490       .  S
C935        C936   1.405       .  A
C936        C937   1.405       .  A
C936        F941   1.358       .  S
C937        C938   1.412       .  A
C937        F953   1.356       .  S
C938        C939   1.413       .  A
C939        F942   1.358       .  S
C940        C943   1.409       .  A
C940        C947   1.406       .  A
C943        C944   1.405       .  A
C943        F948   1.357       .  S
C944        C945   1.404       .  A
C944        F950   1.358       .  S
C945        C946   1.406       .  A
C946        C947   1.401       .  A
C946        F949   1.358       .  S
C947        F951   1.358       .  S
C954        C955   1.406       .  A
C954        C959   1.399       .  A
C954        F972   1.358       .  S
C955        C960   1.488       .  S
C955        C956   1.407       .  A
C956        C957   1.402       .  A
C956        F961   1.358       .  S
C957        C958   1.408       .  A
C957        F973   1.357       .  S
C958        C959   1.410       .  A
C959        F962   1.357       .  S
C960        C963   1.404       .  A
C960        C967   1.409       .  A
C963        C964   1.394       .  A
C963        F968   1.358       .  S
C964        C965   1.410       .  A
C964        F970   1.358       .  S
C965        C966   1.409       .  A
C966        C967   1.407       .  A
C966        F969   1.357       .  S
C967        F971   1.357       .  S
C974        C975   1.411       .  A
C974        C979   1.405       .  A
C974        F992   1.357       .  S
C975        C980   1.499       .  S
C975        C976   1.409       .  A
C976        C977   1.404       .  A
C976        F981   1.358       .  S
C977        C978   1.408       .  A
C977        F993   1.358       .  S
C978        C979   1.407       .  A
C979        F982   1.358       .  S
C980        C983   1.412       .  A
C980        C987   1.409       .  A
C983        C984   1.407       .  A
C983        F988   1.357       .  S
C984        C985   1.404       .  A
C984        F990   1.357       .  S
C985        C986   1.409       .  A
C986        C987   1.401       .  A
C986        F989   1.359       .  S
C987        F991   1.358       .  S
C994        C995   1.409       .  A
C994        C999   1.407       .  A
C994       F1012   1.358       .  S
C995       C1000   1.491       .  S
C995        C996   1.405       .  A
C996        C997   1.401       .  A
C996       F1001   1.358       .  S
C997        C998   1.408       .  A
C997       F1013   1.358       .  S
C998        C999   1.406       .  A
C999       F1002   1.357       .  S
C1000      C1003   1.406       .  A
C1000      C1007   1.405       .  A
C1003      C1004   1.401       .  A
C1003      F1008   1.358       .  S
C1004      C1005   1.411       .  A
C1004      F1010   1.358       .  S
C1005      C1006   1.414       .  A
C1006      C1007   1.404       .  A
C1006      F1009   1.356       .  S
C1007      F1011   1.358       .  S
C1014      C1015   1.413       .  A
C1014      C1019   1.411       .  A
C1014      F1032   1.357       .  S
C1015      C1020   1.501       .  S
C1015      C1016   1.407       .  A
C1016      C1017   1.398       .  A
C1016      F1021   1.359       .  S
C1017      C1018   1.413       .  A
C1017      F1033   1.359       .  S
C1018      C1019   1.407       .  A
C1019      F1022   1.357       .  S
C1020      C1023   1.412       .  A
C1020      C1027   1.410       .  A
C1023      C1024   1.407       .  A
C1023      F1028   1.358       .  S
C1024      C1025   1.407       .  A
C1024      F1030   1.358       .  S
C1025      C1026   1.405       .  A
C1026      C1027   1.402       .  A
C1026      F1029   1.358       .  S
C1027      F1031   1.358       .  S
C1034      C1035   1.403       .  A
C1034      C1039   1.402       .  A
C1034      F1052   1.358       .  S
C1035      C1040   1.484       .  S
C1035      C1036   1.403       .  A
C1036      C1037   1.400       .  A
C1036      F1041   1.358       .  S
C1037      C1038   1.412       .  A
C1037      F1053   1.357       .  S
C1038      C1039   1.414       .  A
C1039      F1042   1.355       .  S
C1040      C1043   1.409       .  A
C1040      C1047   1.403       .  A
C1043      C1044   1.408       .  A
C1043      F1048   1.357       .  S
C1044      C1045   1.405       .  A
C1044      F1050   1.357       .  S
C1045      C1046   1.407       .  A
C1046      C1047   1.394       .  A
C1046      F1049   1.358       .  S
C1047      F1051   1.358       .  S
