geometry optimzed in LAMMPS
_audit_creation_date              2020-11-30 
_audit_creation_method            'lammps2cif' 
_symmetry_space_group_name_H-M    'P1' 
_symmetry_Int_Tables_number       1 
_symmetry_cell_setting            triclinic 
loop_ 
_symmetry_equiv_pos_as_xyz 
  x,y,z 
_cell_length_a                    99.7972081 
_cell_length_b                    98.90739886835452 
_cell_length_c                    99.28834547997012 
_cell_angle_alpha                 90.42837673513922 
_cell_angle_beta                  89.61516053504748 
_cell_angle_gamma                 89.90326489515886 
loop_ 
_atom_site_label 
_atom_site_type_symbol 
_atom_site_fract_x 
_atom_site_fract_y 
_atom_site_fract_z 
_atom_site_charge 
N1          N  0.16212568  0.47314156  0.07158480    -0.26700
N2          N  0.17429743  0.46836407  0.06926598    -0.34500
C3          C  0.17816801  0.46079319  0.07968351     0.01700
C4          C  0.16804955  0.46085248  0.08923322     0.07700
C5          C  0.15800317  0.46886261  0.08382279    -0.05400
H6          H  0.18796467  0.45618959  0.08053381     0.08400
H7          H  0.14851115  0.47148987  0.08848057     0.09600
Cu8        Cu  0.18602130  0.47367193  0.05304343     0.44200
Cu9        Cu  0.15238020  0.48516144  0.05739524     0.42000
Cu10       Cu  0.17178184  0.49130230  0.02567412     0.43900
N11         N  0.19741664  0.48156753  0.03767254    -0.34100
N12         N  0.19230288  0.48767338  0.02709697    -0.28300
C13         C  0.20244013  0.49181104  0.01907932    -0.04400
C14         C  0.21443770  0.48832892  0.02514913     0.07800
C15         C  0.21083775  0.48187719  0.03689539     0.01600
H16         H  0.20119149  0.49738968  0.00983928     0.09200
H17         H  0.21747936  0.47772336  0.04437974     0.08300
N18         N  0.15167378  0.49631587  0.02880979    -0.35500
N19         N  0.14497536  0.49485597  0.04028474    -0.27700
C20         C  0.13249836  0.49983922  0.03875447    -0.02900
C21         C  0.13122425  0.50445666  0.02569116     0.05700
C22         C  0.14354547  0.50201356  0.01968963     0.03800
H23         H  0.12477868  0.49968317  0.04645452     0.08900
H24         H  0.14644420  0.50430293  0.00943966     0.07700
N25         N  0.35283632  0.46787475  0.93847024    -0.26700
N26         N  0.34063434  0.46410129  0.94198759    -0.34500
C27         C  0.33488860  0.45732205  0.93185170     0.01700
C28         C  0.34374400  0.45676608  0.92115512     0.07700
C29         C  0.35510971  0.46360997  0.92565414    -0.05400
H30         H  0.32471979  0.45355255  0.93210956     0.08400
H31         H  0.36425071  0.46539563  0.92003291     0.09600
Cu32       Cu  0.33129446  0.46968722  0.95954255     0.44200
Cu33       Cu  0.36482437  0.47852851  0.95238044     0.42000
Cu34       Cu  0.34731164  0.48692340  0.98560627     0.43900
N35         N  0.32082428  0.47853168  0.97502467    -0.34100
N36         N  0.32645891  0.48497690  0.98518031    -0.28300
C37         C  0.31665116  0.49002843  0.99323773    -0.04400
C38         C  0.30435988  0.48668298  0.98757073     0.07800
C39         C  0.30748249  0.47941773  0.97607584     0.01600
H40         H  0.31831889  0.49601652  0.00223124     0.09200
H41         H  0.30056384  0.47512997  0.96887703     0.08300
N42         N  0.36786998  0.48867523  0.98160075    -0.35500
N43         N  0.37393287  0.48664942  0.96980097    -0.27700
C44         C  0.38702058  0.48984773  0.97109899    -0.02900
C45         C  0.38932499  0.49374335  0.98431637     0.05700
C46         C  0.37700701  0.49281028  0.99065522     0.03800
H47         H  0.39438875  0.48908693  0.96308572     0.08900
H48         H  0.37476291  0.49530024  0.00105823     0.07700
N49         N  0.22418773  0.61705027  0.32386140    -0.26700
N50         N  0.21935166  0.60496202  0.32095635    -0.34500
C51         C  0.21196571  0.60049874  0.33133505     0.01700
C52         C  0.21220593  0.61015581  0.34143170     0.07700
C53         C  0.22011681  0.62053152  0.33641220    -0.05400
H54         H  0.20710288  0.59073582  0.33162905     0.08400
H55         H  0.22258272  0.62994062  0.34142995     0.09600
Cu56       Cu  0.22380069  0.59447187  0.30356013     0.44200
Cu57       Cu  0.23545194  0.62791567  0.30978895     0.42000
Cu58       Cu  0.24053896  0.61085923  0.27645696     0.43900
N59         N  0.23098751  0.58419065  0.28696373    -0.34100
N60         N  0.23691451  0.59000436  0.27658091    -0.28300
C61         C  0.24080301  0.58025296  0.26777764    -0.04400
C62         C  0.23732547  0.56779729  0.27313918     0.07800
C63         C  0.23114926  0.57073177  0.28527218     0.01600
H64         H  0.24629814  0.58203536  0.25853313     0.09200
H65         H  0.22721868  0.56358899  0.29248519     0.08300
N66         N  0.24468799  0.63124183  0.28059575    -0.35500
N67         N  0.24366036  0.63702515  0.29265404    -0.27700
C68         C  0.24790826  0.64991626  0.29180658    -0.02900
C69         C  0.25153461  0.65248863  0.27859862     0.05700
C70         C  0.24932373  0.64044728  0.27176722     0.03800
H71         H  0.24802428  0.65701417  0.30014924     0.08900
H72         H  0.25121603  0.63843560  0.26119825     0.07700
N73         N  0.21329452  0.42490075  0.19252104    -0.26700
N74         N  0.20848147  0.43696096  0.19573093    -0.34500
C75         C  0.20022384  0.44121233  0.18601429     0.01700
C76         C  0.19984199  0.43144622  0.17601258     0.07700
C77         C  0.20829608  0.42123376  0.18043730    -0.05400
H78         H  0.19552956  0.45107734  0.18587634     0.08400
H79         H  0.21083777  0.41197371  0.17513715     0.09600
Cu80       Cu  0.21509906  0.44821407  0.21183085     0.44200
Cu81       Cu  0.22658016  0.41456302  0.20515069     0.42000
Cu82       Cu  0.23789806  0.43385948  0.23522062     0.43900
N83         N  0.22581334  0.45966183  0.22533189    -0.34100
N84         N  0.23415636  0.45463156  0.23427504    -0.28300
C85         C  0.23985886  0.46498787  0.24106476    -0.04400
C86         C  0.23497854  0.47702162  0.23586092     0.07800
C87         C  0.22612955  0.47320040  0.22593471     0.01600
H88         H  0.24729259  0.46386199  0.24885897     0.09200
H89         H  0.22035262  0.47977844  0.21952482     0.08300
N90         N  0.24082478  0.41309929  0.23218856    -0.35500
N91         N  0.23742835  0.40627703  0.22118905    -0.27700
C92         C  0.24098466  0.39319879  0.22272141    -0.02900
C93         C  0.24666829  0.39167075  0.23533597     0.05700
C94         C  0.24636226  0.40449638  0.24101607     0.03800
H95         H  0.23901471  0.38526898  0.21543994     0.08900
H96         H  0.24983740  0.40737032  0.25092842     0.07700
N97         N  0.35266385  0.57215981  0.56765454    -0.26700
N98         N  0.33986057  0.57479733  0.56562861    -0.34500
C99         C  0.33490268  0.58193174  0.57606415     0.01700
C100        C  0.34497439  0.58378135  0.58535045     0.07700
C101        C  0.35614587  0.57743395  0.57971679    -0.05400
H102        H  0.32447135  0.58474052  0.57719279     0.08400
H103        H  0.36592845  0.57638287  0.58422207     0.09600
Cu104      Cu  0.32895955  0.56679501  0.55004770     0.44200
Cu105      Cu  0.36398180  0.56086192  0.55368820     0.42000
Cu106      Cu  0.34557535  0.55052246  0.52265449     0.43900
N107        N  0.31877382  0.55726640  0.53481107    -0.34100
N108        N  0.32465552  0.55176770  0.52414796    -0.28300
C109        C  0.31505580  0.54720472  0.51574716    -0.04400
C110        C  0.30262226  0.54980983  0.52162636     0.07800
C111        C  0.30543391  0.55614996  0.53370838     0.01600
H112        H  0.31696483  0.54236464  0.50611638     0.09200
H113        H  0.29830693  0.56016070  0.54096622     0.08300
N114        N  0.36613913  0.54768347  0.52583185    -0.35500
N115        N  0.37250965  0.55053110  0.53718374    -0.27700
C116        C  0.38529393  0.54616949  0.53605328    -0.02900
C117        C  0.38713408  0.54054169  0.52335304     0.05700
C118        C  0.37481652  0.54177142  0.51714645     0.03800
H119        H  0.39278954  0.54729828  0.54380141     0.08900
H120        H  0.37225067  0.53830413  0.50713196     0.07700
N121        N  0.16194360  0.57598610  0.44442838    -0.26700
N122        N  0.17442232  0.57888941  0.44769583    -0.34500
C123        C  0.18031122  0.58572151  0.43769142     0.01700
C124        C  0.17125251  0.58709030  0.42737361     0.07700
C125        C  0.15965374  0.58076272  0.43193316    -0.05400
H126        H  0.19079792  0.58847758  0.43751867     0.08400
H127        H  0.15046418  0.57929605  0.42639735     0.09600
Cu128      Cu  0.18415239  0.57112722  0.46400854     0.44200
Cu129      Cu  0.14965050  0.56478264  0.45741218     0.42000
Cu130      Cu  0.16702293  0.55228753  0.48850042     0.43900
N131        N  0.19407319  0.56098716  0.47886103    -0.34100
N132        N  0.18792809  0.55427896  0.48853087    -0.28300
C133        C  0.19730591  0.54917302  0.49683695    -0.04400
C134        C  0.20987982  0.55269464  0.49186912     0.07800
C135        C  0.20737716  0.56014237  0.48046179     0.01600
H136        H  0.19516542  0.54319220  0.50566911     0.09200
H137        H  0.21467928  0.56487868  0.47392778     0.08300
N138        N  0.14653928  0.55019831  0.48434189    -0.35500
N139        N  0.14048616  0.55405866  0.47314534    -0.27700
C140        C  0.12755679  0.55010374  0.47369050    -0.02900
C141        C  0.12530026  0.54363195  0.48582143     0.05700
C142        C  0.13753703  0.54394540  0.49230668     0.03800
H143        H  0.12029520  0.55191499  0.46586382     0.08900
H144        H  0.13984362  0.53958657  0.50198187     0.07700
N145        N  0.30577782  0.62002119  0.69337921    -0.26700
N146        N  0.31138425  0.60824496  0.69606238    -0.34500
C147        C  0.31827744  0.60380443  0.68525692     0.01700
C148        C  0.31685786  0.61310111  0.67507690     0.07700
C149        C  0.30882082  0.62327878  0.68053282    -0.05400
H150        H  0.32314385  0.59403704  0.68456670     0.08400
H151        H  0.30519077  0.63218233  0.67544263     0.09600
Cu152      Cu  0.30721726  0.59725918  0.71302747     0.44200
Cu153      Cu  0.29389541  0.63025477  0.70771671     0.42000
Cu154      Cu  0.28624155  0.61088157  0.73888754     0.43900
N155        N  0.29869825  0.58552106  0.72773429    -0.34100
N156        N  0.29104381  0.59028406  0.73758570    -0.28300
C157        C  0.28664423  0.57976552  0.74499543    -0.04400
C158        C  0.29161147  0.56789732  0.73926064     0.07800
C159        C  0.29920378  0.57199454  0.72837296     0.01600
H160        H  0.27996215  0.58064050  0.75358264     0.09200
H161        H  0.30464093  0.56561912  0.72131437     0.08300
N162        N  0.28176290  0.63138700  0.73605710    -0.35500
N163        N  0.28396000  0.63814899  0.72477455    -0.27700
C164        C  0.27938760  0.65090975  0.72641081    -0.02900
C165        C  0.27421850  0.65233295  0.73934469     0.05700
C166        C  0.27595563  0.63975977  0.74515313     0.03800
H167        H  0.28011119  0.65869497  0.71884574     0.08900
H168        H  0.27311157  0.63686319  0.75525957     0.07700
N169        N  0.30577368  0.42480116  0.81224641    -0.26700
N170        N  0.31233113  0.43563943  0.80815182    -0.34500
C171        C  0.32002682  0.44036911  0.81815793     0.01700
C172        C  0.31820337  0.43231454  0.82930352     0.07700
C173        C  0.30905173  0.42250767  0.82523116    -0.05400
H174        H  0.32599108  0.44947126  0.81755118     0.08400
H175        H  0.30499490  0.41441960  0.83128462     0.09600
Cu176      Cu  0.30905032  0.44517109  0.79011432     0.44200
Cu177      Cu  0.29267604  0.41416839  0.79937785     0.42000
Cu178      Cu  0.28745628  0.43025555  0.76608751     0.43900
N179        N  0.30136544  0.45577898  0.77415605    -0.34100
N180        N  0.29356568  0.45034801  0.76489301    -0.28300
C181        C  0.28934808  0.46019524  0.75658660    -0.04400
C182        C  0.29456596  0.47237374  0.76112232     0.07800
C183        C  0.30210975  0.46917348  0.77225274     0.01600
H184        H  0.28231871  0.45874790  0.74845718     0.09200
H185        H  0.30738697  0.47613448  0.77878276     0.08300
N186        N  0.28057145  0.41108374  0.77132091    -0.35500
N187        N  0.28178326  0.40548383  0.78334382    -0.27700
C188        C  0.27551877  0.39337621  0.78312312    -0.02900
C189        C  0.27031533  0.39119813  0.77035016     0.05700
C190        C  0.27376486  0.40263521  0.76318265     0.03800
H191        H  0.27509077  0.38649691  0.79153363     0.08900
H192        H  0.27136555  0.40475750  0.75280024     0.07700
N193        N  0.54535797  0.58561384  0.35062134    -0.26700
N194        N  0.55007449  0.58195254  0.33867382    -0.34500
C195        C  0.55746377  0.59200226  0.33353097     0.01700
C196        C  0.55737591  0.60267083  0.34257369     0.07700
C197        C  0.54953844  0.59832400  0.35331646    -0.05400
H198        H  0.56213065  0.59171597  0.32366839     0.08400
H199        H  0.54708074  0.60395595  0.36238438     0.09600
Cu200      Cu  0.54530494  0.56411960  0.32905599     0.44200
Cu201      Cu  0.53382027  0.57244492  0.36232201     0.42000
Cu202      Cu  0.52670784  0.53900439  0.34648812     0.43900
N203        N  0.53747571  0.54737773  0.31954346    -0.34100
N204        N  0.53052817  0.53791179  0.32576102    -0.28300
C205        C  0.52618466  0.52891452  0.31648078    -0.04400
C206        C  0.53056039  0.53307187  0.30385333     0.07800
C207        C  0.53770196  0.54479887  0.30626110     0.01600
H208        H  0.51993418  0.52027578  0.31869636     0.09200
H209        H  0.54248978  0.55122204  0.29889948     0.08300
N210        N  0.52323937  0.54387887  0.36677999    -0.35500
N211        N  0.52505115  0.55601729  0.37221814    -0.27700
C212        C  0.52124105  0.55566712  0.38526322    -0.02900
C213        C  0.51707882  0.54268437  0.38827447     0.05700
C214        C  0.51852228  0.53548410  0.37633195     0.03800
H215        H  0.52184287  0.56415631  0.39216549     0.08900
H216        H  0.51614041  0.52494069  0.37465308     0.07700
N217        N  0.53452714  0.44998856  0.16655089    -0.26700
N218        N  0.52794915  0.45042052  0.17814135    -0.34500
C219        C  0.53084193  0.43941081  0.18529636     0.01700
C220        C  0.53985339  0.43161371  0.17807736     0.07700
C221        C  0.54207200  0.43860829  0.16618124    -0.05400
H222        H  0.52726371  0.43765310  0.19544463     0.08400
H223        H  0.54871682  0.43573005  0.15799281     0.09600
Cu224      Cu  0.51782309  0.46696039  0.18570182     0.44200
Cu225      Cu  0.53245566  0.46553900  0.15257624     0.42000
Cu226      Cu  0.52200813  0.49776066  0.16909319     0.43900
N227        N  0.51555936  0.48517427  0.19558413    -0.34100
N228        N  0.51789274  0.49685347  0.18968927    -0.28300
C229        C  0.51818007  0.50663534  0.19921154    -0.04400
C230        C  0.51597724  0.50072545  0.21168900     0.07800
C231        C  0.51429328  0.48711077  0.20893050     0.01600
H232        H  0.52056073  0.51711387  0.19728493     0.09200
H233        H  0.51335476  0.47902637  0.21614927     0.08300
N234        N  0.52353871  0.49459527  0.14832941    -0.35500
N235        N  0.52661066  0.48297491  0.14231856    -0.27700
C236        C  0.52477557  0.48429325  0.12893070    -0.02900
C237        C  0.52058921  0.49739960  0.12642179     0.05700
C238        C  0.52001079  0.50361225  0.13892528     0.03800
H239        H  0.52623350  0.47626973  0.12159960     0.08900
H240        H  0.51658460  0.51378265  0.14111560     0.07700
N241        N  0.60145968  0.70541377  0.29943305    -0.26700
N242        N  0.58833156  0.70685401  0.30041649    -0.34500
C243        C  0.58304950  0.69634622  0.30696931     0.01700
C244        C  0.59323667  0.68758936  0.31018018     0.07700
C245        C  0.60485617  0.69353240  0.30516603    -0.05400
H246        H  0.57244585  0.69497694  0.30884978     0.08400
H247        H  0.61495280  0.68959215  0.30575140     0.09600
Cu248      Cu  0.57760786  0.72240075  0.29236936     0.44200
Cu249      Cu  0.61315590  0.72064432  0.29062398     0.42000
Cu250      Cu  0.59320546  0.75220149  0.28263073     0.43900
N251        N  0.56688327  0.73852594  0.28550649    -0.34100
N252        N  0.57243503  0.75017440  0.28236050    -0.28300
C253        C  0.56265071  0.75894223  0.27902321    -0.04400
C254        C  0.55042354  0.75228952  0.28007114     0.07800
C255        C  0.55356548  0.73937690  0.28417076     0.01600
H256        H  0.56431024  0.76930650  0.27604725     0.09200
H257        H  0.54666857  0.73125257  0.28638871     0.08300
N258        N  0.61391806  0.74996644  0.28074947    -0.35500
N259        N  0.62088846  0.73872389  0.28274633    -0.27700
C260        C  0.63373511  0.74096227  0.27910873    -0.02900
C261        C  0.63491775  0.75422147  0.27485948     0.05700
C262        C  0.62220328  0.75961170  0.27610666     0.03800
H263        H  0.64166214  0.73351335  0.27963045     0.08900
H264        H  0.61907247  0.76969660  0.27336829     0.07700
N265        N  0.41263866  0.83735336  0.30999240    -0.26700
N266        N  0.42487067  0.83399506  0.31372384    -0.34500
C267        C  0.42939040  0.84309266  0.32268924     0.01700
C268        C  0.41964134  0.85284889  0.32458440     0.07700
C269        C  0.40914429  0.84895156  0.31632645    -0.05400
H270        H  0.43943907  0.84315762  0.32671284     0.08400
H271        H  0.39984364  0.85433145  0.31475642     0.09600
Cu272      Cu  0.43580696  0.81878906  0.30463923     0.44200
Cu273      Cu  0.40179856  0.82566211  0.29629652     0.42000
Cu274      Cu  0.41920141  0.79546109  0.28255825     0.43900
N275        N  0.44592106  0.80510831  0.29261268    -0.34100
N276        N  0.44006299  0.79602828  0.28480501    -0.28300
C277        C  0.44968053  0.78854460  0.27865797    -0.04400
C278        C  0.46208218  0.79344843  0.28264536     0.07800
C279        C  0.45926890  0.80393673  0.29143927     0.01600
H280        H  0.44780650  0.78034255  0.27165558     0.09200
H281        H  0.46640646  0.81011667  0.29684443     0.08300
N282        N  0.39858921  0.79922921  0.28080010    -0.35500
N283        N  0.39253644  0.81041622  0.28506851    -0.27700
C284        C  0.37945532  0.80979356  0.28181424    -0.02900
C285        C  0.37705813  0.79757258  0.27538863     0.05700
C286        C  0.38941988  0.79114002  0.27494953     0.03800
H287        H  0.37214853  0.81753402  0.28427227     0.08900
H288        H  0.39163534  0.78135625  0.27051975     0.07700
N289        N  0.41560603  0.20952017  0.20198980    -0.26700
N290        N  0.42672938  0.21414772  0.19643053    -0.34500
C291        C  0.43203500  0.20467581  0.18827530     0.01700
C292        C  0.42402312  0.19334173  0.18876146     0.07700
C293        C  0.41362986  0.19674231  0.19756457    -0.05400
H294        H  0.44165418  0.20559457  0.18327834     0.08400
H295        H  0.40558835  0.19024792  0.20093767     0.09600
Cu296      Cu  0.43627196  0.23140872  0.20265582     0.44200
Cu297      Cu  0.40474297  0.22108855  0.21603371     0.42000
Cu298      Cu  0.42279883  0.25062184  0.23005290     0.43900
N299        N  0.44761201  0.24440691  0.21401461    -0.34100
N300        N  0.44292623  0.25139111  0.22441022    -0.28300
C301        C  0.45322782  0.25780844  0.23038457    -0.04400
C302        C  0.46490416  0.25454560  0.22338980     0.07800
C303        C  0.46091795  0.24604045  0.21310291     0.01600
H304        H  0.45232632  0.26400630  0.23936645     0.09200
H305        H  0.46725350  0.24102924  0.20571746     0.08300
N306        N  0.40238464  0.24696274  0.23279375    -0.35500
N307        N  0.39600921  0.23616521  0.22816031    -0.27700
C308        C  0.38300677  0.23703918  0.23181225    -0.02900
C309        C  0.38104059  0.24899626  0.23891266     0.05700
C310        C  0.39354791  0.25502849  0.23931483     0.03800
H311        H  0.37545306  0.22966867  0.22916622     0.08900
H312        H  0.39607382  0.26456836  0.24404539     0.07700
N313        N  0.59854323  0.34015344  0.22923323    -0.26700
N314        N  0.58657780  0.33934426  0.23491632    -0.34500
C315        C  0.57920249  0.35004746  0.23142479     0.01700
C316        C  0.58672602  0.35813101  0.22296239     0.07700
C317        C  0.59904060  0.35157264  0.22182633    -0.05400
H318        H  0.56875541  0.35122886  0.23412213     0.08400
H319        H  0.60742718  0.35448707  0.21553481     0.09600
Cu320      Cu  0.57907408  0.32239119  0.24415766     0.44200
Cu321      Cu  0.61235368  0.32437284  0.23133004     0.42000
Cu322      Cu  0.59529408  0.29154971  0.23601371     0.43900
N323        N  0.56960282  0.30398453  0.24541317    -0.34100
N324        N  0.57518837  0.29256777  0.24127588    -0.28300
C325        C  0.56575232  0.28286847  0.24086781    -0.04400
C326        C  0.55368857  0.28854418  0.24501612     0.07800
C327        C  0.55654008  0.30190760  0.24787528     0.01600
H328        H  0.56744335  0.27263461  0.23732199     0.09200
H329        H  0.54943976  0.30981808  0.25041597     0.08300
N330        N  0.61587109  0.29433501  0.23669500    -0.35500
N331        N  0.62201671  0.30617352  0.23597398    -0.27700
C332        C  0.63500627  0.30442242  0.23922172    -0.02900
C333        C  0.63711794  0.29084409  0.24186483     0.05700
C334        C  0.62480336  0.28477847  0.24007682     0.03800
H335        H  0.64233330  0.31245468  0.23975104     0.08900
H336        H  0.62232761  0.27429698  0.24187319     0.07700
N337        N  0.47025944  0.08598139  0.16229100    -0.26700
N338        N  0.46752715  0.08400805  0.17516587    -0.34500
C339        C  0.45988545  0.09413689  0.17991223     0.01700
C340        C  0.45775726  0.10316291  0.16965302     0.07700
C341        C  0.46454007  0.09776829  0.15856608    -0.05400
H342        H  0.45641637  0.09501297  0.19023041     0.08400
H343        H  0.46509588  0.10197531  0.14855242     0.09600
Cu344      Cu  0.47475128  0.06828639  0.18633771     0.44200
Cu345      Cu  0.48123046  0.07168789  0.15100224     0.42000
Cu346      Cu  0.49021189  0.04049239  0.17001875     0.43900
N347        N  0.48292132  0.05255424  0.19682905    -0.34100
N348        N  0.48822255  0.04178569  0.19093263    -0.28300
C349        C  0.49211431  0.03309693  0.20055192    -0.04400
C350        C  0.48926904  0.03887731  0.21303791     0.07800
C351        C  0.48346386  0.05120969  0.21025314     0.01600
H352        H  0.49671900  0.02335883  0.19861669     0.09200
H353        H  0.47953168  0.05851202  0.21742666     0.08300
N354        N  0.49358141  0.04338182  0.14944971    -0.35500
N355        N  0.49107300  0.05468562  0.14281325    -0.27700
C356        C  0.49565745  0.05325391  0.13006905    -0.02900
C357        C  0.50111079  0.04043338  0.12855483     0.05700
C358        C  0.49955617  0.03446177  0.14102231     0.03800
H359        H  0.49495038  0.06094706  0.12241700     0.08900
H360        H  0.50290871  0.02448890  0.14389477     0.07700
N361        N  0.46508255  0.95788379  0.35418394    -0.26700
N362        N  0.46293604  0.96012749  0.34127466    -0.34500
C363        C  0.45473426  0.95059610  0.33635050     0.01700
C364        C  0.45162867  0.94173388  0.34656540     0.07700
C365        C  0.45841522  0.94658527  0.35776587    -0.05400
H366        H  0.45155609  0.94998283  0.32596729     0.08400
H367        H  0.45840391  0.94230779  0.36776253     0.09600
Cu368      Cu  0.47156620  0.97562509  0.33057538     0.44200
Cu369      Cu  0.47666750  0.97103287  0.36588150     0.42000
Cu370      Cu  0.48896125  0.00170030  0.34809500     0.43900
N371        N  0.48036614  0.99171290  0.32093228    -0.34100
N372        N  0.48644967  0.00175995  0.32722357    -0.28300
C373        C  0.49056158  0.01082469  0.31797877    -0.04400
C374        C  0.48700638  0.00605360  0.30530995     0.07800
C375        C  0.48057770  0.99392641  0.30762590     0.01600
H376        H  0.49588841  0.02006569  0.32027917     0.09200
H377        H  0.47613177  0.98727061  0.30021122     0.08300
N378        N  0.49113979  0.99805182  0.36868095    -0.35500
N379        N  0.48726146  0.98690828  0.37492701    -0.27700
C380        C  0.49090142  0.98777282  0.38795693    -0.02900
C381        C  0.49718162  0.00007884  0.39007170     0.05700
C382        C  0.49711991  0.00632153  0.37764214     0.03800
H383        H  0.48895751  0.98006841  0.39539257     0.08900
H384        H  0.50138795  0.01605544  0.37520213     0.07700
N385        N  0.69751756  0.31682816  0.59975950    -0.26700
N386        N  0.70097290  0.32273066  0.58837627    -0.34500
C387        C  0.69102137  0.33085599  0.58435727     0.01700
C388        C  0.68063986  0.32998450  0.59357852     0.07700
C389        C  0.68508636  0.32097510  0.60324351    -0.05400
H390        H  0.69100842  0.33623037  0.57490841     0.08400
H391        H  0.67954164  0.31736406  0.61189491     0.09600
Cu392      Cu  0.71775032  0.31746883  0.57743634     0.44200
Cu393      Cu  0.71016627  0.30307064  0.60916722     0.42000
Cu394      Cu  0.74140071  0.29388470  0.59056935     0.43900
N395        N  0.73195367  0.30790816  0.56567532    -0.34100
N396        N  0.74093834  0.29928952  0.57024485    -0.28300
C397        C  0.74806420  0.29436924  0.55967843    -0.04400
C398        C  0.74306009  0.30005429  0.54797441     0.07800
C399        C  0.73288780  0.30855462  0.55222008     0.01600
H400        H  0.75589166  0.28683485  0.56040056     0.09200
H401        H  0.72644116  0.31463907  0.54597275     0.08300
N402        N  0.73743056  0.28924006  0.61074676    -0.35500
N403        N  0.72601010  0.29195921  0.61710626    -0.27700
C404        C  0.72670859  0.28724693  0.62976735    -0.02900
C405        C  0.73918646  0.28145669  0.63158842     0.05700
C406        C  0.74572467  0.28291738  0.61932537     0.03800
H407        H  0.71882335  0.28832074  0.63723119     0.08900
H408        H  0.75574912  0.27954438  0.61677731     0.07700
N409        N  0.82938393  0.31417507  0.40754929    -0.26700
N410        N  0.82763759  0.31432921  0.42073663    -0.34500
C411        C  0.83739575  0.32145452  0.42659903     0.01700
C412        C  0.84597558  0.32605942  0.41672995     0.07700
C413        C  0.84067798  0.32118372  0.40468146    -0.05400
H414        H  0.83821008  0.32299840  0.43735927     0.08400
H415        H  0.84462107  0.32277462  0.39464287     0.09600
Cu416      Cu  0.81205589  0.30541978  0.43068338     0.44200
Cu417      Cu  0.81517642  0.30464284  0.39515935     0.42000
Cu418      Cu  0.78307961  0.29570377  0.41408009     0.43900
N419        N  0.79524631  0.29977178  0.44101379    -0.34100
N420        N  0.78380659  0.29679544  0.43513626    -0.28300
C421        C  0.77455237  0.29436269  0.44483202    -0.04400
C422        C  0.78072810  0.29574642  0.45730192     0.07800
C423        C  0.79380410  0.29917261  0.45440383     0.01600
H424        H  0.76426876  0.29150273  0.44296963     0.09200
H425        H  0.80170373  0.30130622  0.46151661     0.08300
N426        N  0.78674670  0.29288601  0.39342129    -0.35500
N427        N  0.79811127  0.29534594  0.38685177    -0.27700
C428        C  0.79678691  0.29107731  0.37397633    -0.02900
C429        C  0.78399768  0.28590617  0.37231331     0.05700
C430        C  0.77795246  0.28727269  0.38482422     0.03800
H431        H  0.80453935  0.29179664  0.36634736     0.08900
H432        H  0.76797069  0.28403080  0.38761298     0.07700
N433        N  0.07187290  0.17317029  0.45214950    -0.26700
N434        N  0.06883751  0.18507090  0.44701280    -0.34500
C435        C  0.07838909  0.18874299  0.43821760     0.01700
C436        C  0.08810745  0.17882643  0.43788892     0.07700
C437        C  0.08374564  0.16910034  0.44691934    -0.05400
H438        H  0.07866199  0.19836647  0.43311251     0.08400
H439        H  0.08889961  0.15989064  0.44962296     0.09600
Cu440      Cu  0.05317062  0.19701086  0.45354229     0.44200
Cu441      Cu  0.05924291  0.16344675  0.46591904     0.42000
Cu442      Cu  0.02865411  0.18298937  0.47503068     0.43900
N443        N  0.03848946  0.20851323  0.46269919    -0.34100
N444        N  0.02896841  0.20337761  0.47038718    -0.28300
C445        C  0.02101601  0.21348751  0.47488815    -0.04400
C446        C  0.02601388  0.22554260  0.46993027     0.07800
C447        C  0.03708242  0.22198573  0.46225812     0.01600
H448        H  0.01250809  0.21220075  0.48156370     0.09200
H449        H  0.04362826  0.22866874  0.45669831     0.08300
N450        N  0.03201808  0.16289930  0.47983520    -0.35500
N451        N  0.04309354  0.15594530  0.47717496    -0.27700
C452        C  0.04157567  0.14329025  0.48193156    -0.02900
C453        C  0.02891622  0.14225236  0.48767410     0.05700
C454        C  0.02319254  0.15486001  0.48614254     0.03800
H455        H  0.04891420  0.13529451  0.48077913     0.08900
H456        H  0.01324428  0.15797183  0.48927341     0.07700
N457        N  0.94680394  0.36891182  0.46250621    -0.26700
N458        N  0.94976377  0.35737995  0.45637084    -0.34500
C459        C  0.93933968  0.35333452  0.44892981     0.01700
C460        C  0.92913681  0.36261706  0.45054935     0.07700
C461        C  0.93411204  0.37235285  0.45933373    -0.05400
H462        H  0.93897952  0.34393315  0.44329989     0.08400
H463        H  0.92892349  0.38123380  0.46309667     0.09600
Cu464      Cu  0.96702098  0.34658967  0.45954213     0.44200
Cu465      Cu  0.96100720  0.37915637  0.47415594     0.42000
Cu466      Cu  0.99441729  0.36220095  0.47576219     0.43900
N467        N  0.98369282  0.33600904  0.46534589    -0.34100
N468        N  0.99427100  0.34170344  0.47091328    -0.28300
C469        C  0.00326396  0.33197434  0.47379494    -0.04400
C470        C  0.99782948  0.31961217  0.47009575     0.07800
C471        C  0.98544092  0.32257498  0.46478282     0.01600
H472        H  0.01272457  0.33369520  0.47877586     0.09200
H473        H  0.97814943  0.31548935  0.46089767     0.08300
N474        N  0.99047038  0.38207474  0.48167714    -0.35500
N475        N  0.97852702  0.38796008  0.48171184    -0.27700
C476        C  0.97985252  0.40075866  0.48627207    -0.02900
C477        C  0.99324576  0.40308345  0.48908845     0.05700
C478        C  0.99963788  0.39100807  0.48606535     0.03800
H479        H  0.97172237  0.40797804  0.48701694     0.08900
H480        H  0.01023037  0.38886190  0.48691141     0.07700
N481        N  0.44373784  0.17410540  0.55180619    -0.26700
N482        N  0.44589744  0.18659984  0.55603015    -0.34500
C483        C  0.43498683  0.19135702  0.56240231     0.01700
C484        C  0.42523876  0.18150182  0.56217093     0.07700
C485        C  0.43106795  0.17065070  0.55527659    -0.05400
H486        H  0.43410248  0.20148802  0.56649855     0.08400
H487        H  0.42647635  0.16100284  0.55302461     0.09600
Cu488      Cu  0.46293494  0.19744339  0.55216958     0.44200
Cu489      Cu  0.45898277  0.16308902  0.54191918     0.42000
Cu490      Cu  0.49115668  0.18228753  0.53686483     0.43900
N491        N  0.47943790  0.20841540  0.54665674    -0.34100
N492        N  0.49031127  0.20296755  0.54125807    -0.28300
C493        C  0.49926984  0.21289594  0.53892075    -0.04400
C494        C  0.49353575  0.22511890  0.54287468     0.07800
C495        C  0.48097413  0.22184403  0.54771395     0.01600
H496        H  0.50905980  0.21138612  0.53440741     0.09200
H497        H  0.47349418  0.22868356  0.55181091     0.08300
N498        N  0.48831027  0.16174343  0.53259781    -0.35500
N499        N  0.47693015  0.15497338  0.53403009    -0.27700
C500        C  0.47900091  0.14203394  0.53010771    -0.02900
C501        C  0.49228020  0.14054835  0.52611397     0.05700
C502        C  0.49782352  0.15325858  0.52785387     0.03800
H503        H  0.47143589  0.13422072  0.53039804     0.08900
H504        H  0.50807754  0.15616888  0.52581049     0.07700
N505        N  0.57412578  0.36861417  0.55617132    -0.26700
N506        N  0.57149221  0.35653676  0.56113278    -0.34500
C507        C  0.58240712  0.35163297  0.56716286     0.01700
C508        C  0.59259441  0.36095112  0.56594000     0.07700
C509        C  0.58705095  0.37163002  0.55883950    -0.05400
H510        H  0.58298238  0.34171816  0.57165036     0.08400
H511        H  0.59202361  0.38085128  0.55584359     0.09600
Cu512      Cu  0.55398583  0.34604325  0.55838607     0.44200
Cu513      Cu  0.55946244  0.37987707  0.54617037     0.42000
Cu514      Cu  0.52722238  0.36150870  0.54159257     0.43900
N515        N  0.53762946  0.33528456  0.55195019    -0.34100
N516        N  0.52740797  0.34091047  0.54575087    -0.28300
C517        C  0.51866332  0.33114325  0.54224339    -0.04400
C518        C  0.52383426  0.31880620  0.54629771     0.07800
C519        C  0.53585664  0.32185447  0.55242210     0.01600
H520        H  0.50948829  0.33283622  0.53676001     0.09200
H521        H  0.54289684  0.31483812  0.55679112     0.08300
N522        N  0.53035489  0.38183239  0.53718450    -0.35500
N523        N  0.54193472  0.38830209  0.53817964    -0.27700
C524        C  0.54024938  0.40107486  0.53380789    -0.02900
C525        C  0.52698328  0.40274736  0.53010324     0.05700
C526        C  0.52103411  0.39037298  0.53243403     0.03800
H527        H  0.54803059  0.40867587  0.53363417     0.08900
H528        H  0.51069919  0.38768280  0.53060018     0.07700
N529        N  0.31901046  0.22416984  0.59747654    -0.26700
N530        N  0.31692275  0.21966903  0.58510302    -0.34500
C531        C  0.32748609  0.21235850  0.58088325     0.01700
C532        C  0.33693657  0.21228628  0.59094689     0.07700
C533        C  0.33129153  0.21995687  0.60135864    -0.05400
H534        H  0.32846058  0.20797435  0.57090761     0.08400
H535        H  0.33580504  0.22234817  0.61095943     0.09600
Cu536      Cu  0.30067423  0.22468523  0.57356763     0.44200
Cu537      Cu  0.30430139  0.23558215  0.60785690     0.42000
Cu538      Cu  0.27246806  0.24021896  0.58852743     0.43900
N539        N  0.28482610  0.23148104  0.56236638    -0.34100
N540        N  0.27397033  0.23700177  0.56772726    -0.28300
C541        C  0.26576866  0.24081300  0.55767370    -0.04400
C542        C  0.27194371  0.23762202  0.54545002     0.07800
C543        C  0.28398891  0.23172501  0.54889324     0.01600
H544        H  0.25630229  0.24597466  0.55914256     0.09200
H545        H  0.29174306  0.22808726  0.54211002     0.08300
N546        N  0.27510590  0.24522667  0.60886753    -0.35500
N547        N  0.28652881  0.24438371  0.61557168    -0.27700
C548        C  0.28451066  0.24930813  0.62815605    -0.02900
C549        C  0.27119364  0.25322916  0.62951134     0.05700
C550        C  0.26558670  0.25043633  0.61708393     0.03800
H551        H  0.29209769  0.24965357  0.63588114     0.08900
H552        H  0.25531619  0.25220977  0.61414894     0.07700
N553        N  0.19047151  0.22563132  0.40531296    -0.26700
N554        N  0.19071552  0.22693711  0.41855211    -0.34500
C555        C  0.18137788  0.21897006  0.42409083     0.01700
C556        C  0.17465693  0.21240627  0.41389346     0.07700
C557        C  0.18056453  0.21692791  0.40203637    -0.05400
H558        H  0.17957202  0.21810704  0.43480732     0.08400
H559        H  0.17811018  0.21383366  0.39187562     0.09600
Cu560      Cu  0.20407718  0.23879233  0.42880725     0.44200
Cu561      Cu  0.20494068  0.23513756  0.39330518     0.42000
Cu562      Cu  0.23469508  0.24739693  0.41268302     0.43900
N563        N  0.22013382  0.24623424  0.43919816    -0.34100
N564        N  0.23200941  0.24841462  0.43369611    -0.28300
C565        C  0.24082791  0.25088685  0.44368944    -0.04400
C566        C  0.23399080  0.25034890  0.45594918     0.07800
C567        C  0.22091449  0.24745401  0.45261932     0.01600
H568        H  0.25142903  0.25262525  0.44218181     0.09200
H569        H  0.21271889  0.24541613  0.45949398     0.08300
N570        N  0.23276409  0.24804369  0.39159219    -0.35500
N571        N  0.22191867  0.24435009  0.38484988    -0.27700
C572        C  0.22362406  0.24750097  0.37176099    -0.02900
C573        C  0.23615910  0.25326240  0.37006477     0.05700
C574        C  0.24168460  0.25337452  0.38284613     0.03800
H575        H  0.21622037  0.24577891  0.36402933     0.08900
H576        H  0.25126082  0.25759542  0.38568932     0.07700
N577        N  0.72995213  0.92520964  0.68519803    -0.26700
N578        N  0.72932817  0.93844227  0.68701237    -0.34500
C579        C  0.72227582  0.94403465  0.67705616     0.01700
C580        C  0.71826787  0.93395736  0.66830144     0.07700
C581        C  0.72337982  0.92207101  0.67370400    -0.05400
H582        H  0.72009798  0.95472545  0.67635595     0.08400
H583        H  0.72198432  0.91191239  0.66986002     0.09600
Cu584      Cu  0.73713446  0.94867492  0.70326040     0.44200
Cu585      Cu  0.73879406  0.91276736  0.69978644     0.42000
Cu586      Cu  0.74611194  0.93071828  0.73244209     0.43900
N587        N  0.74226238  0.95831173  0.72089935    -0.34100
N588        N  0.74491055  0.95186335  0.73216787    -0.28300
C589        C  0.74641251  0.96109483  0.74214035    -0.04400
C590        C  0.74478264  0.97391316  0.73671918     0.07800
C591        C  0.74219005  0.97168605  0.72323717     0.01600
H592        H  0.74840232  0.95867268  0.75254443     0.09200
H593        H  0.73976573  0.97919507  0.71576705     0.08300
N594        N  0.74833221  0.90989475  0.72892803    -0.35500
N595        N  0.74637549  0.90360225  0.71725620    -0.27700
C596        C  0.74952780  0.89041196  0.71869516    -0.02900
C597        C  0.75343374  0.88823184  0.73188525     0.05700
C598        C  0.75251726  0.90081174  0.73804528     0.03800
H599        H  0.74878812  0.88289172  0.71076771     0.08900
H600        H  0.75496332  0.90325796  0.74837736     0.07700
N601        N  0.71180247  0.11611483  0.81954645    -0.26700
N602        N  0.70834416  0.10342603  0.81710591    -0.34500
C603        C  0.70120835  0.09865357  0.82752004     0.01700
C604        C  0.70012658  0.10865668  0.83722583     0.07700
C605        C  0.70704534  0.11962568  0.83189378    -0.05400
H606        H  0.69757471  0.08838029  0.82819446     0.08400
H607        H  0.70853719  0.12937781  0.83665115     0.09600
Cu608      Cu  0.71431336  0.09208109  0.80060717     0.44200
Cu609      Cu  0.72269861  0.12763385  0.80536842     0.42000
Cu610      Cu  0.73042921  0.10871569  0.77385936     0.43900
N611        N  0.72253704  0.08162529  0.78449852    -0.34100
N612        N  0.72838275  0.08777783  0.77428711    -0.28300
C613        C  0.73325607  0.07836197  0.76567931    -0.04400
C614        C  0.73044323  0.06567187  0.77084768     0.07800
C615        C  0.72360482  0.06816902  0.78279103     0.01600
H616        H  0.73881280  0.08059028  0.75657272     0.09200
H617        H  0.71983020  0.06078778  0.78984034     0.08300
N618        N  0.73390259  0.12930014  0.77672868    -0.35500
N619        N  0.73188698  0.13609126  0.78812600    -0.27700
C620        C  0.73603401  0.14897212  0.78633367    -0.02900
C621        C  0.74066018  0.15034902  0.77317196     0.05700
C622        C  0.73908708  0.13767462  0.76744079     0.03800
H623        H  0.73537841  0.15685477  0.79392311     0.08900
H624        H  0.74166969  0.13468380  0.75724578     0.07700
N625        N  0.66740006  0.96474095  0.56597216    -0.26700
N626        N  0.67799986  0.95866204  0.56063182    -0.34500
C627        C  0.68369956  0.95064889  0.56982889     0.01700
C628        C  0.67657354  0.95184363  0.58172799     0.07700
C629        C  0.66627967  0.96089240  0.57895678    -0.05400
H630        H  0.69313182  0.94541733  0.56834753     0.08400
H631        H  0.65890532  0.96482008  0.58600422     0.09600
Cu632      Cu  0.68687568  0.96457324  0.54290611     0.44200
Cu633      Cu  0.65594981  0.97875878  0.55506838     0.42000
Cu634      Cu  0.67237500  0.99163347  0.52441917     0.43900
N635        N  0.69781797  0.97664022  0.53015672    -0.34100
N636        N  0.69268720  0.98673084  0.52323024    -0.28300
C637        C  0.70275166  0.99329067  0.51694345    -0.04400
C638        C  0.71474056  0.98712049  0.52036012     0.07800
C639        C  0.71119373  0.97661220  0.52872437     0.01600
H640        H  0.70149355  0.00219759  0.51081805     0.09200
H641        H  0.71784467  0.96959271  0.53365683     0.08300
N642        N  0.65227812  0.99503532  0.52939203    -0.35500
N643        N  0.64643994  0.99095271  0.54067387    -0.27700
C644        C  0.63357583  0.99522669  0.54073306    -0.02900
C645        C  0.63114990  0.00212431  0.52886885     0.05700
C646        C  0.64324605  0.00175559  0.52194765     0.03800
H647        H  0.62639616  0.99312097  0.54865218     0.08900
H648        H  0.64537222  0.00614570  0.51221927     0.07700
N649        N  0.85578169  0.97786288  0.44093452    -0.26700
N650        N  0.84316863  0.97462032  0.44342688    -0.34500
C651        C  0.83824601  0.96753583  0.43301811     0.01700
C652        C  0.84812645  0.96628456  0.42329424     0.07700
C653        C  0.85914162  0.97302543  0.42859488    -0.05400
H654        H  0.82803454  0.96393599  0.43243181     0.08400
H655        H  0.86885529  0.97426453  0.42386569     0.09600
Cu656      Cu  0.83257387  0.98052273  0.46031632     0.44200
Cu657      Cu  0.86738620  0.98839774  0.45512862     0.42000
Cu658      Cu  0.84994957  0.99442612  0.48794378     0.43900
N659        N  0.82294752  0.98739625  0.47742415    -0.34100
N660        N  0.82932698  0.99199079  0.48811799    -0.28300
C661        C  0.82026427  0.99525360  0.49773493    -0.04400
C662        C  0.80762241  0.99281882  0.49260743     0.07800
C663        C  0.80970222  0.98785722  0.47974041     0.01600
H664        H  0.82267388  0.99936290  0.50755012     0.09200
H665        H  0.80215732  0.98457641  0.47266405     0.08300
N666        N  0.86998826  0.99851192  0.48408353    -0.35500
N667        N  0.87618914  0.99709858  0.47230762    -0.27700
C668        C  0.88891647  0.00150794  0.47362289    -0.02900
C669        C  0.89078318  0.00567049  0.48685219     0.05700
C670        C  0.87860109  0.00357811  0.49314380     0.03800
H671        H  0.89635632  0.00134320  0.46564768     0.08900
H672        H  0.87609535  0.00573872  0.50355881     0.07700
N673        N  0.79210329  0.11300478  0.18859361    -0.26700
N674        N  0.79218178  0.09970572  0.18969602    -0.34500
C675        C  0.80019676  0.09429596  0.18022845     0.01700
C676        C  0.80534128  0.10459455  0.17252577     0.07700
C677        C  0.79994459  0.11640132  0.17799138    -0.05400
H678        H  0.80207064  0.08357561  0.17901704     0.08400
H679        H  0.80193456  0.12664495  0.17481042     0.09600
Cu680      Cu  0.78191469  0.08907675  0.20405415     0.44200
Cu681      Cu  0.78230688  0.12510884  0.20299733     0.42000
Cu682      Cu  0.77159182  0.10571899  0.23366193     0.43900
N683        N  0.77409123  0.07880767  0.22010343    -0.34100
N684        N  0.77095440  0.08471568  0.23165868    -0.28300
C685        C  0.76793205  0.07505340  0.24069981    -0.04400
C686        C  0.76909687  0.06254783  0.23432706     0.07800
C687        C  0.77296612  0.06536860  0.22129074     0.01600
H688        H  0.76538446  0.07695721  0.25115075     0.09200
H689        H  0.77563119  0.05816075  0.21346718     0.08300
N690        N  0.77131853  0.12674233  0.23178503    -0.35500
N691        N  0.77432192  0.13359610  0.22073711    -0.27700
C692        C  0.77205433  0.14684885  0.22312247    -0.02900
C693        C  0.76765481  0.14842375  0.23630687     0.05700
C694        C  0.76736491  0.13549201  0.24147573     0.03800
H695        H  0.77373662  0.15478402  0.21586655     0.08900
H696        H  0.76418493  0.13259381  0.25148319     0.07700
N697        N  0.80691722  0.92444635  0.31906660    -0.26700
N698        N  0.81175481  0.93645044  0.31586739    -0.34500
C699        C  0.81923443  0.94120066  0.32603599     0.01700
C700        C  0.81899262  0.93189886  0.33632545     0.07700
C701        C  0.81103533  0.92139205  0.33160904    -0.05400
H702        H  0.82368174  0.95116698  0.32630220     0.08400
H703        H  0.80818910  0.91237385  0.33701475     0.09600
Cu704      Cu  0.80589895  0.94739606  0.29932901     0.44200
Cu705      Cu  0.79468238  0.91324721  0.30599291     0.42000
Cu706      Cu  0.78417130  0.93185874  0.27583007     0.43900
N707        N  0.79545351  0.95825383  0.28518634    -0.34100
N708        N  0.78741527  0.95257574  0.27629146    -0.28300
C709        C  0.78142736  0.96235262  0.26911292    -0.04400
C710        C  0.78581772  0.97476437  0.27391638     0.07800
C711        C  0.79468858  0.97175558  0.28409612     0.01600
H712        H  0.77404522  0.96056671  0.26137516     0.09200
H713        H  0.80001548  0.97884739  0.29044016     0.08300
N714        N  0.78132328  0.91127314  0.27864592    -0.35500
N715        N  0.78453521  0.90452922  0.28964061    -0.27700
C716        C  0.78090662  0.89147879  0.28796481    -0.02900
C717        C  0.77532276  0.88996777  0.27527459     0.05700
C718        C  0.77579416  0.90272073  0.26970126     0.03800
H719        H  0.78254479  0.88361206  0.29528738     0.08900
H720        H  0.77229487  0.90562763  0.25984676     0.07700
N721        N  0.66419264  0.06215296  0.94122066    -0.26700
N722        N  0.67630375  0.06679737  0.94380587    -0.34500
C723        C  0.68052347  0.07452764  0.93358600     0.01700
C724        C  0.67067241  0.07472874  0.92389811     0.07700
C725        C  0.66043637  0.06669468  0.92901330    -0.05400
H726        H  0.69035762  0.07907838  0.93296036     0.08400
H727        H  0.65105994  0.06424041  0.92417470     0.09600
Cu728      Cu  0.68734994  0.06089968  0.96011548     0.44200
Cu729      Cu  0.65421303  0.04984847  0.95510023     0.42000
Cu730      Cu  0.67416330  0.03944266  0.98542373     0.43900
N731        N  0.69905366  0.05200900  0.97449162    -0.34100
N732        N  0.69449828  0.04406782  0.98411233    -0.28300
C733        C  0.70500328  0.03963752  0.99138136    -0.04400
C734        C  0.71663885  0.04498657  0.98581102     0.07800
C735        C  0.71242181  0.05274111  0.97516786     0.01600
H736        H  0.70426906  0.03275280  0.99976815     0.09200
H737        H  0.71862238  0.05844639  0.96827813     0.08300
N738        N  0.65367672  0.03628268  0.98276220    -0.35500
N739        N  0.64677149  0.03942425  0.97184673    -0.27700
C740        C  0.63403740  0.03523659  0.97350301    -0.02900
C741        C  0.63280831  0.02938499  0.98605968     0.05700
C742        C  0.64542242  0.03026646  0.99166517     0.03800
H743        H  0.62619320  0.03652372  0.96615228     0.08900
H744        H  0.64847794  0.02650780  0.00138042     0.07700
N745        N  0.85295582  0.06679996  0.07074875    -0.26700
N746        N  0.84139468  0.07147580  0.06635328    -0.34500
C747        C  0.83584479  0.07964715  0.07563797     0.01700
C748        C  0.84413982  0.08009360  0.08664055     0.07700
C749        C  0.85492665  0.07175745  0.08330138    -0.05400
H750        H  0.82608071  0.08430855  0.07471157     0.08400
H751        H  0.86347748  0.06944938  0.08952175     0.09600
Cu752      Cu  0.83233513  0.06514624  0.04905705     0.44200
Cu753      Cu  0.86495219  0.05433101  0.05843247     0.42000
Cu754      Cu  0.84943548  0.04688824  0.02447948     0.43900
N755        N  0.82252833  0.05581095  0.03359846    -0.34100
N756        N  0.82873635  0.04921250  0.02379821    -0.28300
C757        C  0.81944922  0.04381401  0.01553133    -0.04400
C758        C  0.80688680  0.04702644  0.02074850     0.07800
C759        C  0.80926003  0.05460265  0.03216713     0.01600
H760        H  0.82164483  0.03750290  0.00684649     0.09200
H761        H  0.80188629  0.05880998  0.03905847     0.08300
N762        N  0.86937548  0.04372392  0.02969070    -0.35500
N763        N  0.87472188  0.04538957  0.04179202    -0.27700
C764        C  0.88762039  0.04128151  0.04125135    -0.02900
C765        C  0.89054084  0.03711616  0.02820113     0.05700
C766        C  0.87877056  0.03884523  0.02119272     0.03800
H767        H  0.89445496  0.04161386  0.04965761     0.08900
H768        H  0.87703856  0.03642003  0.01070414     0.07700
C769        C  0.55374705  0.99292033  0.03175228     0.80800
N770        N  0.54722843  0.98243076  0.02572349    -0.77500
C771        C  0.53562270  0.97759526  0.03110875     0.83300
N772        N  0.53061480  0.98329988  0.04260025    -0.77400
C773        C  0.53702881  0.99379815  0.04866400     0.83400
N774        N  0.54857773  0.99857590  0.04318328    -0.79100
C775        C  0.54977427  0.04085295  0.48915906     0.80800
N776        N  0.54351971  0.05140750  0.49553268    -0.77500
C777        C  0.53234428  0.05707605  0.49007250     0.83300
N778        N  0.52758021  0.05225627  0.47817885    -0.77400
C779        C  0.53376217  0.04179284  0.47174345     0.83400
N780        N  0.54480766  0.03610690  0.47729719    -0.79100
N781        N  0.68868541  0.73391134  0.91649580    -0.26700
N782        N  0.68870266  0.73489804  0.92977466    -0.34500
C783        C  0.67877719  0.72734867  0.93488569     0.01700
C784        C  0.67197053  0.72144086  0.92434857     0.07700
C785        C  0.67840566  0.72588396  0.91277368    -0.05400
H786        H  0.67654307  0.72642442  0.94551892     0.08400
H787        H  0.67597918  0.72325970  0.90247869     0.09600
Cu788      Cu  0.70220173  0.74616731  0.94063065     0.44200
Cu789      Cu  0.70358809  0.74291329  0.90473576     0.42000
Cu790      Cu  0.73268352  0.75539290  0.92435877     0.43900
N791        N  0.71810843  0.75425510  0.95093263    -0.34100
N792        N  0.72983525  0.75679031  0.94525407    -0.28300
C793        C  0.73870371  0.75968620  0.95505396    -0.04400
C794        C  0.73209247  0.75909951  0.96740194     0.07800
C795        C  0.71905607  0.75570098  0.96434631     0.01600
H796        H  0.74924269  0.76163358  0.95336368     0.09200
H797        H  0.71109670  0.75337981  0.97140707     0.08300
N798        N  0.73164226  0.75491666  0.90326965    -0.35500
N799        N  0.72098048  0.75114320  0.89630033    -0.27700
C800        C  0.72346593  0.75302833  0.88308290    -0.02900
C801        C  0.73634700  0.75800395  0.88161355     0.05700
C802        C  0.74123686  0.75901273  0.89460285     0.03800
H803        H  0.71648295  0.75071558  0.87510589     0.08900
H804        H  0.75096101  0.76277691  0.89756845     0.07700
N805        N  0.82010259  0.72089489  0.10314602    -0.26700
N806        N  0.81634382  0.71695074  0.09099451    -0.34500
C807        C  0.82602009  0.70938041  0.08529472     0.01700
C808        C  0.83663730  0.70851886  0.09407413     0.07700
C809        C  0.83259297  0.71601204  0.10535043    -0.05400
H810        H  0.82559181  0.70533447  0.07515207     0.08400
H811        H  0.83831908  0.71782691  0.11439614     0.09600
Cu812      Cu  0.79928717  0.72345009  0.08136891     0.44200
Cu813      Cu  0.80729192  0.73284039  0.11543503     0.42000
Cu814      Cu  0.77682047  0.74563911  0.09761314     0.43900
N815        N  0.78448781  0.73357384  0.07110107    -0.34100
N816        N  0.77599665  0.74202582  0.07697535    -0.28300
C817        C  0.76823497  0.74766292  0.06744738    -0.04400
C818        C  0.77221709  0.74253462  0.05498644     0.07800
C819        C  0.78252687  0.73364675  0.05774968     0.01600
H820        H  0.76063675  0.75525509  0.06939211     0.09200
H821        H  0.78841703  0.72786170  0.05055466     0.08300
N822        N  0.78036251  0.74764851  0.11816675    -0.35500
N823        N  0.79127953  0.74364034  0.12457124    -0.27700
C824        C  0.79007053  0.74731669  0.13766153    -0.02900
C825        C  0.77779392  0.75371170  0.13956514     0.05700
C826        C  0.77195053  0.75368271  0.12699566     0.03800
H827        H  0.79751585  0.74535231  0.14527402     0.08900
H828        H  0.76237862  0.75803888  0.12435571     0.07700
N829        N  0.57318510  0.67081768  0.96663880    -0.26700
N830        N  0.56976921  0.68283562  0.96209091    -0.34500
C831        C  0.57984209  0.68804017  0.95484681     0.01700
C832        C  0.59035079  0.67900062  0.95487120     0.07700
C833        C  0.58588040  0.66816176  0.96254435    -0.05400
H834        H  0.57974417  0.69802747  0.95047297     0.08400
H835        H  0.59143336  0.65911243  0.96498478     0.09600
Cu836      Cu  0.55246285  0.69267631  0.96725778     0.44200
Cu837      Cu  0.55938572  0.65942839  0.97786103     0.42000
Cu838      Cu  0.52613664  0.67707529  0.98470284     0.43900
N839        N  0.53646593  0.70345091  0.97452367    -0.34100
N840        N  0.52609756  0.69799263  0.98074097    -0.28300
C841        C  0.51751298  0.70805556  0.98427552    -0.04400
C842        C  0.52308659  0.72030712  0.98025768     0.07800
C843        C  0.53506850  0.71690954  0.97417277     0.01600
H844        H  0.50826077  0.70665204  0.98982457     0.09200
H845        H  0.54234353  0.72374650  0.96984570     0.08300
N846        N  0.53047273  0.65651846  0.98833248    -0.35500
N847        N  0.54225324  0.65050224  0.98645169    -0.27700
C848        C  0.54127870  0.63751151  0.99040844    -0.02900
C849        C  0.52830637  0.63510771  0.99484431     0.05700
C850        C  0.52176783  0.64738964  0.99334266     0.03800
H851        H  0.54940599  0.63027025  0.98990373     0.08900
H852        H  0.51144568  0.64961580  0.99592419     0.07700
N853        N  0.44646524  0.86748475  0.95941875    -0.26700
N854        N  0.44912565  0.85557070  0.95390286    -0.34500
C855        C  0.43882034  0.85163799  0.94623162     0.01700
C856        C  0.42892401  0.86137176  0.94699523     0.07700
C857        C  0.43405967  0.87131433  0.95552438    -0.05400
H858        H  0.43821408  0.84190844  0.94121996     0.08400
H859        H  0.42905914  0.88047934  0.95882961     0.09600
Cu860      Cu  0.46522322  0.84363983  0.95887007     0.44200
Cu861      Cu  0.46052071  0.87717388  0.97194730     0.42000
Cu862      Cu  0.49069936  0.85602514  0.97982889     0.43900
N863        N  0.47909083  0.83104408  0.96754337    -0.34100
N864        N  0.48882616  0.83540188  0.97537853    -0.28300
C865        C  0.49573290  0.82459549  0.97988420    -0.04400
C866        C  0.48984704  0.81293593  0.97470358     0.07800
C867        C  0.47934008  0.81748924  0.96695961     0.01600
H868        H  0.50411196  0.82515560  0.98671997     0.09200
H869        H  0.47225364  0.81139369  0.96139718     0.08300
N870        N  0.48896249  0.87685622  0.98341157    -0.35500
N871        N  0.47806661  0.88425423  0.98137916    -0.27700
C872        C  0.48058021  0.89708302  0.98536585    -0.02900
C873        C  0.49369624  0.89785533  0.98985857     0.05700
C874        C  0.49867266  0.88485870  0.98841730     0.03800
H875        H  0.47351308  0.90534778  0.98464241     0.08900
H876        H  0.50862398  0.88140971  0.99097179     0.07700
N877        N  0.94167280  0.67809845  0.04635135    -0.26700
N878        N  0.94374069  0.69102640  0.04899490    -0.34500
C879        C  0.93383503  0.69580922  0.05689487     0.01700
C880        C  0.92485938  0.68549839  0.05932639     0.07700
C881        C  0.93006469  0.67435677  0.05238772    -0.05400
H882        H  0.93318434  0.70612672  0.06054262     0.08400
H883        H  0.92595463  0.66424565  0.05211493     0.09600
Cu884      Cu  0.95995261  0.70171084  0.04184808     0.44200
Cu885      Cu  0.95612562  0.66687603  0.03554542     0.42000
Cu886      Cu  0.98847080  0.68534070  0.02771297     0.43900
N887        N  0.97636380  0.71205990  0.03468867    -0.34100
N888        N  0.98733685  0.70630627  0.02982565    -0.28300
C889        C  0.99609571  0.71611219  0.02633530    -0.04400
C890        C  0.99011839  0.72855522  0.02902987     0.07800
C891        C  0.97766398  0.72551504  0.03429282     0.01600
H892        H  0.00588163  0.71433500  0.02191098     0.09200
H893        H  0.97006460  0.73257976  0.03772198     0.08300
N894        N  0.98503341  0.66470680  0.02478767    -0.35500
N895        N  0.97347173  0.65837848  0.02675520    -0.27700
C896        C  0.97486176  0.64540835  0.02271142    -0.02900
C897        C  0.98789235  0.64341356  0.01824972     0.05700
C898        C  0.99405327  0.65583221  0.01975754     0.03800
H899        H  0.96700034  0.63790619  0.02319012     0.08900
H900        H  0.00425594  0.65835182  0.01702252     0.07700
N901        N  0.07432350  0.86841181  0.04941737    -0.26700
N902        N  0.07025372  0.85771814  0.05619554    -0.34500
C903        C  0.08024800  0.85302665  0.06379086     0.01700
C904        C  0.09139694  0.86096266  0.06168829     0.07700
C905        C  0.08733667  0.87064721  0.05243979    -0.05400
H906        H  0.07968397  0.84385421  0.06963430     0.08400
H907        H  0.09345298  0.87850471  0.04804109     0.09600
Cu908      Cu  0.05263559  0.84778333  0.05274264     0.44200
Cu909      Cu  0.06117045  0.87874043  0.03651395     0.42000
Cu910      Cu  0.02805223  0.86185258  0.03189845     0.43900
N911        N  0.03813770  0.83621512  0.04384389    -0.34100
N912        N  0.02858723  0.84129759  0.03626636    -0.28300
C913        C  0.02140460  0.83101851  0.03103120    -0.04400
C914        C  0.02701971  0.81896395  0.03533785     0.07800
C915        C  0.03758645  0.82266881  0.04342690     0.01600
H916        H  0.01323022  0.83219709  0.02403289     0.09200
H917        H  0.04458017  0.81602635  0.04840125     0.08300
N918        N  0.03233062  0.88174599  0.02656218    -0.35500
N919        N  0.04426508  0.88755974  0.02739414    -0.27700
C920        C  0.04335221  0.90016769  0.02235685    -0.02900
C921        C  0.03023504  0.90246658  0.01838860     0.05700
C922        C  0.02357252  0.89055688  0.02123545     0.03800
H923        H  0.05156768  0.90727624  0.02192825     0.08900
H924        H  0.01312920  0.88834951  0.01938384     0.07700
N925        N  0.32573579  0.81481027  0.90967070    -0.26700
N926        N  0.32393949  0.81692516  0.92272938    -0.34500
C927        C  0.33399938  0.82450806  0.92753603     0.01700
C928        C  0.34281105  0.82724531  0.91713879     0.07700
C929        C  0.33731022  0.82087142  0.90591295    -0.05400
H930        H  0.33511713  0.82730156  0.93802471     0.08400
H931        H  0.34145607  0.82060132  0.89581931     0.09600
Cu932      Cu  0.30871219  0.80860047  0.93415226     0.44200
Cu933      Cu  0.31178842  0.80374303  0.89811713     0.42000
Cu934      Cu  0.28184472  0.79241019  0.91759321     0.43900
N935        N  0.29308454  0.79974574  0.94459010    -0.34100
N936        N  0.28282783  0.79393009  0.93855745    -0.28300
C937        C  0.27412117  0.78962195  0.94804529    -0.04400
C938        C  0.27922187  0.79286850  0.96064990     0.07800
C939        C  0.29128745  0.79925054  0.95800489     0.01600
H940        H  0.26474446  0.78459060  0.94592596     0.09200
H941        H  0.29816093  0.80350894  0.96525731     0.08300
N942        N  0.28411726  0.79049334  0.89672766    -0.35500
N943        N  0.29502792  0.79377162  0.88979389    -0.27700
C944        C  0.29324867  0.79004178  0.87680979    -0.02900
C945        C  0.28057767  0.78442230  0.87547531     0.05700
C946        C  0.27510061  0.78494060  0.88830105     0.03800
H947        H  0.30058065  0.79145962  0.86887263     0.08900
H948        H  0.26540226  0.78114475  0.89138713     0.07700
N949        N  0.19150135  0.80809680  0.09963536    -0.26700
N950        N  0.19325123  0.80849208  0.08643950    -0.34500
C951        C  0.18326525  0.81557948  0.08087159     0.01700
C952        C  0.17461084  0.81974823  0.09098068     0.07700
C953        C  0.18006382  0.81475705  0.10278334    -0.05400
H954        H  0.18227140  0.81735483  0.07018491     0.08400
H955        H  0.17613860  0.81606845  0.11289265     0.09600
Cu956      Cu  0.20905374  0.79949877  0.07634373     0.44200
Cu957      Cu  0.20557518  0.79899457  0.11224831     0.42000
Cu958      Cu  0.23771450  0.78994339  0.09506111     0.43900
N959        N  0.22647894  0.79281195  0.06726710    -0.34100
N960        N  0.23754969  0.79014539  0.07396826    -0.28300
C961        C  0.24751849  0.78773706  0.06499989    -0.04400
C962        C  0.24230850  0.78874480  0.05209703     0.07800
C963        C  0.22894424  0.79192204  0.05398156     0.01600
H964        H  0.25778608  0.78553779  0.06765222     0.09200
H965        H  0.22168947  0.79417019  0.04626099     0.08300
N966        N  0.23388145  0.78791521  0.11572601    -0.35500
N967        N  0.22225036  0.79049359  0.12175683    -0.27700
C968        C  0.22314686  0.78701871  0.13483530    -0.02900
C969        C  0.23596183  0.78221739  0.13721164     0.05700
C970        C  0.24247527  0.78298752  0.12488293     0.03800
H971        H  0.21510555  0.78809288  0.14212853     0.08900
H972        H  0.25264935  0.77987026  0.12264073     0.07700
C973        C  0.03297844  0.56081185  0.98689618     0.80800
N974        N  0.04378041  0.55537336  0.99312849    -0.77500
C975        C  0.04905297  0.54340969  0.98884636     0.83300
N976        N  0.04332425  0.53674181  0.97831437    -0.77400
C977        C  0.03244723  0.54203386  0.97202598     0.83400
N978        N  0.02736771  0.55411916  0.97631520    -0.79100
C979        C  0.48345103  0.55357744  0.02874434     0.80800
N980        N  0.48878757  0.54697219  0.03943172    -0.77500
C981        C  0.48360706  0.53491970  0.04350173     0.83300
N982        N  0.47321727  0.52936360  0.03660463    -0.77400
C983        C  0.46778814  0.53587180  0.02591064     0.83400
N984        N  0.47285714  0.54804985  0.02214765    -0.79100
N985        N  0.91119880  0.70088616  0.71644915    -0.26700
N986        N  0.92388338  0.70264161  0.71297119    -0.34500
C987        C  0.92795835  0.69220155  0.70525830     0.01700
C988        C  0.91742788  0.68326273  0.70391042     0.07700
C989        C  0.90695168  0.68901218  0.71122781    -0.05400
H990        H  0.93804147  0.69095924  0.70136647     0.08400
H991        H  0.89699074  0.68492140  0.71258160     0.09600
Cu992      Cu  0.93563084  0.71844718  0.71967927     0.44200
Cu993      Cu  0.90047335  0.71542377  0.72751393     0.42000
Cu994      Cu  0.91908200  0.74693108  0.73458581     0.43900
N995        N  0.94593731  0.73447608  0.72807620    -0.34100
N996        N  0.93998590  0.74531401  0.73319233    -0.28300
C997        C  0.94950177  0.75405046  0.73733776    -0.04400
C998        C  0.96200012  0.74830802  0.73483539     0.07800
C999        C  0.95929648  0.73588510  0.72898311     0.01600
H1000       H  0.94748130  0.76385003  0.74182587     0.09200
H1001       H  0.96649780  0.72854690  0.72526647     0.08300
N1002       N  0.89839505  0.74450153  0.73746690    -0.35500
N1003       N  0.89187767  0.73295615  0.73578255    -0.27700
C1004       C  0.87897382  0.73473655  0.73955400    -0.02900
C1005       C  0.87721271  0.74806385  0.74360475     0.05700
C1006       C  0.88971937  0.75394225  0.74206539     0.03800
H1007       H  0.87136818  0.72696797  0.73910354     0.08900
H1008       H  0.89240033  0.76428035  0.74443125     0.07700
N1009       N  0.10007010  0.82774471  0.69960160    -0.26700
N1010       N  0.08695311  0.82593289  0.69947236    -0.34500
C1011       C  0.08128181  0.83505678  0.69134373     0.01700
C1012       C  0.09123131  0.84324405  0.68623070     0.07700
C1013       C  0.10304989  0.83840306  0.69172771    -0.05400
H1014       H  0.07059742  0.83613851  0.68990590     0.08400
H1015       H  0.11300809  0.84248361  0.69031838     0.09600
Cu1016     Cu  0.07697301  0.81222592  0.71136374     0.44200
Cu1017     Cu  0.11283530  0.81552112  0.71095175     0.42000
Cu1018     Cu  0.09567726  0.78983524  0.73202553     0.43900
N1019       N  0.06806688  0.79755146  0.72295261    -0.34100
N1020       N  0.07479464  0.78864161  0.73010434    -0.28300
C1021       C  0.06599328  0.77971105  0.73535319    -0.04400
C1022       C  0.05316468  0.78346884  0.73149133     0.07800
C1023       C  0.05491805  0.79482557  0.72368714     0.01600
H1024       H  0.06869953  0.77120422  0.74156324     0.09200
H1025       H  0.04723071  0.80042959  0.71848409     0.08300
N1026       N  0.11642041  0.79328136  0.73169330    -0.35500
N1027       N  0.12264704  0.80193229  0.72367007    -0.27700
C1028       C  0.13599494  0.80073589  0.72547320    -0.02900
C1029       C  0.13826721  0.79113003  0.73528892     0.05700
C1030       C  0.12563922  0.78668715  0.73902473     0.03800
H1031       H  0.14348524  0.80659347  0.72018850     0.08900
H1032       H  0.12333538  0.77892787  0.74630172     0.07700
N1033       N  0.96188822  0.57977292  0.66571513    -0.26700
N1034       N  0.95806374  0.57765159  0.67827780    -0.34500
C1035       C  0.94989417  0.58767091  0.68237301     0.01700
C1036       C  0.94856074  0.59673573  0.67195920     0.07700
C1037       C  0.95638664  0.59148210  0.66153625    -0.05400
H1038       H  0.94581622  0.58864043  0.69245898     0.08400
H1039       H  0.95804451  0.59589261  0.65172920     0.09600
Cu1040     Cu  0.96540358  0.56223438  0.68989071     0.44200
Cu1041     Cu  0.97420797  0.56595373  0.65545201     0.42000
Cu1042     Cu  0.98571890  0.53609708  0.67498345     0.43900
N1043       N  0.97514110  0.54786294  0.70106045    -0.34100
N1044       N  0.98248344  0.53793766  0.69591437    -0.28300
C1045       C  0.98730238  0.53049838  0.70618969    -0.04400
C1046       C  0.98286713  0.53623483  0.71827515     0.07800
C1047       C  0.97522362  0.54720181  0.71454624     0.01600
H1048       H  0.99372978  0.52174984  0.70497810     0.09200
H1049       H  0.96998689  0.55420225  0.72115440     0.08300
N1050       N  0.98778837  0.53822722  0.65394723    -0.35500
N1051       N  0.98414732  0.54914147  0.64720190    -0.27700
C1052       C  0.98722493  0.54735120  0.63407685    -0.02900
C1053       C  0.99295712  0.53468963  0.63232125     0.05700
C1054       C  0.99310586  0.52917878  0.64514683     0.03800
H1055       H  0.98517943  0.55467562  0.62631597     0.08900
H1056       H  0.99696130  0.51936127  0.64790945     0.07700
N1057       N  0.96231846  0.45239493  0.85898417    -0.26700
N1058       N  0.96300583  0.45345868  0.84573978    -0.34500
C1059       C  0.95538086  0.44397925  0.83993507     0.01700
C1060       C  0.94963570  0.43623435  0.84985963     0.07700
C1061       C  0.95431863  0.44172988  0.86191995    -0.05400
H1062       H  0.95417458  0.44279199  0.82916907     0.08400
H1063       H  0.95176299  0.43849488  0.87199776     0.09600
Cu1064     Cu  0.97356689  0.46784916  0.83546705     0.44200
Cu1065     Cu  0.97170185  0.46697466  0.87142149     0.42000
Cu1066     Cu  0.98207220  0.49784166  0.85157692     0.43900
N1067       N  0.98063851  0.48405795  0.82489986    -0.34100
N1068       N  0.98309225  0.49587396  0.83059218    -0.28300
C1069       C  0.98626070  0.50477958  0.82082212    -0.04400
C1070       C  0.98588515  0.49803002  0.80847406     0.07800
C1071       C  0.98230792  0.48493133  0.81153169     0.01600
H1072       H  0.98867994  0.51530366  0.82255856     0.09200
H1073       H  0.98053728  0.47671779  0.80451281     0.08300
N1074       N  0.98329781  0.49570160  0.87251197    -0.35500
N1075       N  0.98047665  0.48470138  0.87956594    -0.27700
C1076       C  0.98391538  0.48700434  0.89254711    -0.02900
C1077       C  0.98891202  0.50007114  0.89371754     0.05700
C1078       C  0.98827458  0.50521598  0.88083241     0.03800
H1079       H  0.98277686  0.47974038  0.90056397     0.08900
H1080       H  0.99164553  0.51507292  0.87760625     0.07700
N1081       N  0.05487924  0.95085808  0.65302090    -0.26700
N1082       N  0.06048747  0.95415017  0.66459296    -0.34500
C1083       C  0.06833543  0.94400956  0.66869110     0.01700
C1084       C  0.06757417  0.93362929  0.65938653     0.07700
C1085       C  0.05889073  0.93824842  0.64954193    -0.05400
H1086       H  0.07368658  0.94396481  0.67813197     0.08400
H1087       H  0.05570656  0.93285731  0.64060309     0.09600
Cu1088     Cu  0.05594770  0.97130318  0.67545044     0.44200
Cu1089     Cu  0.04239184  0.96447147  0.64313364     0.42000
Cu1090     Cu  0.03567887  0.99700028  0.66193503     0.43900
N1091       N  0.04849584  0.98688860  0.68704053    -0.34100
N1092       N  0.04110925  0.99681716  0.68226174    -0.28300
C1093       C  0.03763038  0.00510852  0.69258902    -0.04400
C1094       C  0.04293617  0.99987102  0.70437374     0.07800
C1095       C  0.04974390  0.98834497  0.70040638     0.01600
H1096       H  0.03136632  0.01398679  0.69167386     0.09200
H1097       H  0.05519421  0.98144316  0.70676597     0.08300
N1098       N  0.03107755  0.99317005  0.64169940    -0.35500
N1099       N  0.03293298  0.98151607  0.63524877    -0.27700
C1100       C  0.02851331  0.98274315  0.62252389    -0.02900
C1101       C  0.02381254  0.99577708  0.62078659     0.05700
C1102       C  0.02560972  0.00209056  0.63314022     0.03800
H1103       H  0.02900178  0.97480000  0.61498560     0.08900
H1104       H  0.02302992  0.01240680  0.63577838     0.07700
N1105       N  0.05690517  0.07855568  0.84677729    -0.26700
N1106       N  0.06290494  0.07503377  0.83536994    -0.34500
C1107       C  0.06940360  0.08572504  0.83027308     0.01700
C1108       C  0.06730915  0.09668465  0.83872376     0.07700
C1109       C  0.05926800  0.09181494  0.84908943    -0.05400
H1110       H  0.07459287  0.08570112  0.82066978     0.08400
H1111       H  0.05530971  0.09751733  0.85756738     0.09600
Cu1112     Cu  0.06016081  0.05671868  0.82579844     0.44200
Cu1113     Cu  0.04592075  0.06459122  0.85821771     0.42000
Cu1114     Cu  0.04089659  0.03118086  0.84153648     0.43900
N1115       N  0.05292560  0.04018435  0.81544969    -0.34100
N1116       N  0.04582648  0.03045750  0.82107141    -0.28300
C1117       C  0.04195659  0.02169765  0.81135145    -0.04400
C1118       C  0.04668953  0.02640204  0.79906990     0.07800
C1119       C  0.05357826  0.03810864  0.80209803     0.01600
H1120       H  0.03565190  0.01297048  0.81300130     0.09200
H1121       H  0.05848498  0.04481904  0.79506855     0.08300
N1122       N  0.03663859  0.03545731  0.86176161    -0.35500
N1123       N  0.03785312  0.04745620  0.86766421    -0.27700
C1124       C  0.03367607  0.04646146  0.88058571    -0.02900
C1125       C  0.02981733  0.03320917  0.88295330     0.05700
C1126       C  0.03189260  0.02656749  0.87080487     0.03800
H1127       H  0.03364320  0.05473071  0.88777875     0.08900
H1128       H  0.02985563  0.01604395  0.86859994     0.07700
N1129       N  0.09901153  0.20108492  0.78874384    -0.26700
N1130       N  0.08618207  0.20302912  0.79146103    -0.34500
C1131       C  0.08152821  0.19287986  0.79904086     0.01700
C1132       C  0.09185269  0.18386628  0.80118017     0.07700
C1133       C  0.10283094  0.18932895  0.79443141    -0.05400
H1134       H  0.07123856  0.19197136  0.80240394     0.08400
H1135       H  0.11282620  0.18511422  0.79378103     0.09600
Cu1136     Cu  0.07527460  0.21900298  0.78435333     0.44200
Cu1137     Cu  0.11002999  0.21549065  0.77785435     0.42000
Cu1138     Cu  0.09129392  0.24739220  0.76963886     0.43900
N1139       N  0.06485634  0.23542423  0.77752416    -0.34100
N1140       N  0.07049799  0.24643144  0.77263847    -0.28300
C1141       C  0.06072309  0.25545667  0.76988210    -0.04400
C1142       C  0.04844505  0.24958950  0.77301245     0.07800
C1143       C  0.05151381  0.23692061  0.77777557     0.01600
H1144       H  0.06238763  0.26538184  0.76568960     0.09200
H1145       H  0.04456598  0.22938971  0.78144520     0.08300
N1146       N  0.11190557  0.24424908  0.76658111    -0.35500
N1147       N  0.11841971  0.23282343  0.76899324    -0.27700
C1148       C  0.13139021  0.23442897  0.76545370    -0.02900
C1149       C  0.13322860  0.24746991  0.76074974     0.05700
C1150       C  0.12063999  0.25337313  0.76162324     0.03800
H1151       H  0.13900297  0.22671004  0.76646704     0.08900
H1152       H  0.11796363  0.26354388  0.75873398     0.07700
N1153       N  0.90853663  0.33335821  0.80653716    -0.26700
N1154       N  0.92112234  0.33052350  0.80945246    -0.34500
C1155       C  0.92614852  0.34024637  0.81741461     0.01700
C1156       C  0.91639098  0.34991338  0.81953405     0.07700
C1157       C  0.90531532  0.34532635  0.81240855    -0.05400
H1158       H  0.93639433  0.34055340  0.82089934     0.08400
H1159       H  0.89568179  0.35027565  0.81160664     0.09600
Cu1160     Cu  0.93171329  0.31475046  0.80104417     0.44200
Cu1161     Cu  0.89710388  0.32004308  0.79469124     0.42000
Cu1162     Cu  0.91669240  0.29257033  0.77724071     0.43900
N1163       N  0.94260561  0.30113646  0.78973127    -0.34100
N1164       N  0.93734079  0.29257218  0.78098733    -0.28300
C1165       C  0.94737019  0.28524137  0.77532781    -0.04400
C1166       C  0.95944050  0.28970992  0.78067611     0.07800
C1167       C  0.95596913  0.29977875  0.78972101     0.01600
H1168       H  0.94602450  0.27751731  0.76768713     0.09200
H1169       H  0.96266618  0.30570154  0.79592318     0.08300
N1170       N  0.89585625  0.29517530  0.77614930    -0.35500
N1171       N  0.88883361  0.30452944  0.78276103    -0.27700
C1172       C  0.87568985  0.30251413  0.78034609    -0.02900
C1173       C  0.87436275  0.29159690  0.77162308     0.05700
C1174       C  0.88735463  0.28725232  0.76915865     0.03800
H1175       H  0.86767709  0.30865145  0.78452826     0.08900
H1176       H  0.89039819  0.27869321  0.76300970     0.07700
C1177       C  0.98881883  0.04286745  0.54205574     0.80800
N1178       N  0.99503539  0.05394995  0.53700505    -0.77500
C1179       C  0.99030474  0.06007724  0.52581436     0.83300
N1180       N  0.97921296  0.05510345  0.51966616    -0.77400
C1181       C  0.97294140  0.04396228  0.52456737     0.83400
N1182       N  0.97780602  0.03783589  0.53576793    -0.79100
C1183       C  0.02910559  0.50302951  0.54532235     0.80800
N1184       N  0.02356703  0.49200923  0.53931198    -0.77500
C1185       C  0.02880661  0.48693830  0.52762727     0.83300
N1186       N  0.03977855  0.49288972  0.52200034    -0.77400
C1187       C  0.04540917  0.50393101  0.52795308     0.83400
N1188       N  0.03997626  0.50897598  0.53956258    -0.79100
C1189       C  0.98544144  0.98234721  0.98137329     0.80800
N1190       N  0.97468410  0.98853194  0.98725836    -0.77500
C1191       C  0.96968235  0.00019986  0.98211092     0.83300
N1192       N  0.97547043  0.00561865  0.97095463    -0.77400
C1193       C  0.98617051  0.99950071  0.96492754     0.83400
N1194       N  0.99113460  0.98786968  0.97019536    -0.79100
C1195       C  0.77995190  0.80640572  0.78065798     0.80800
N1196       N  0.79079627  0.79953519  0.77579525    -0.77500
C1197       C  0.79507906  0.78801641  0.78186522     0.83300
N1198       N  0.78837850  0.78336038  0.79288234    -0.77400
C1199       C  0.77746188  0.79010569  0.79779371     0.83400
N1200       N  0.77332487  0.80162384  0.79165110    -0.79100
C1201       C  0.23359460  0.75022520  0.79551486     0.80800
N1202       N  0.22236885  0.75598153  0.79034336    -0.77500
C1203       C  0.21807049  0.75254871  0.77777716     0.83300
N1204       N  0.22481475  0.74289326  0.77057722    -0.77400
C1205       C  0.23548407  0.73637717  0.77605725     0.83400
N1206       N  0.23994226  0.74025983  0.78841717    -0.79100
C1207       C  0.79614575  0.24794545  0.73073424     0.80800
N1208       N  0.78893219  0.23909524  0.73828905    -0.77500
C1209       C  0.77803048  0.23275405  0.73301274     0.83300
N1210       N  0.77373958  0.23619232  0.72048788    -0.77400
C1211       C  0.78065249  0.24539091  0.71304023     0.83400
N1212       N  0.79214125  0.25077768  0.71801114    -0.79100
C1213       C  0.73433241  0.80841560  0.23731027     0.80800
N1214       N  0.72305152  0.80278101  0.24263131    -0.77500
C1215       C  0.71675491  0.79252314  0.23601892     0.83300
N1216       N  0.72184493  0.78789879  0.22412481    -0.77400
C1217       C  0.73314259  0.79335041  0.21878785     0.83400
N1218       N  0.73934944  0.80364619  0.22539999    -0.79100
C1219       C  0.73568140  0.24857404  0.29486875     0.80800
N1220       N  0.74045847  0.23732411  0.28844910    -0.77500
C1221       C  0.73438979  0.23264177  0.27707957     0.83300
N1222       N  0.72358395  0.23934308  0.27213459    -0.77400
C1223       C  0.71872166  0.25054872  0.27851577     0.83400
N1224       N  0.72479123  0.25505982  0.28988699    -0.79100
C1225       C  0.23010841  0.31125574  0.72750822     0.80800
N1226       N  0.23642065  0.30499326  0.71699403    -0.77500
C1227       C  0.23130611  0.29356608  0.71135348     0.83300
N1228       N  0.21974018  0.28829218  0.71641085    -0.77400
C1229       C  0.21330736  0.29442854  0.72697538     0.83400
N1230       N  0.21850021  0.30595435  0.73244758    -0.79100
C1231       C  0.29710164  0.75454214  0.23716803     0.80800
N1232       N  0.29135117  0.76009933  0.22607363    -0.77500
C1233       C  0.28052261  0.75406030  0.22025028     0.83300
N1234       N  0.27550442  0.74249744  0.22561080    -0.77400
C1235       C  0.28126565  0.73679405  0.23654580     0.83400
N1236       N  0.29209420  0.74282917  0.24221487    -0.79100
C1237       C  0.48781520  0.50099520  0.47289930     0.80800
N1238       N  0.47647335  0.50609386  0.47871730    -0.77500
C1239       C  0.47126047  0.50038747  0.49005431     0.83300
N1240       N  0.47753303  0.48953867  0.49557993    -0.77400
C1241       C  0.48888917  0.48437608  0.48985167     0.83400
N1242       N  0.49393812  0.49014800  0.47852473    -0.79100
C1243       C  0.28135377  0.29085659  0.29039129     0.80800
N1244       N  0.29297487  0.28560102  0.28533269    -0.77500
C1245       C  0.29890048  0.29107676  0.27428573     0.83300
N1246       N  0.29310424  0.30185380  0.26822196    -0.77400
C1247       C  0.28144695  0.30717859  0.27307323     0.83400
N1248       N  0.27561191  0.30169077  0.28423061    -0.79100
C1249       C  0.83975722  0.27678379  0.76253580     0.16600
C1250       C  0.82644572  0.27214764  0.76240581    -0.32500
C1251       C  0.82203688  0.26515459  0.75087829     0.20900
C1252       C  0.83042972  0.26314000  0.73985375     0.03100
C1253       C  0.84380616  0.26752160  0.74009886    -0.22200
C1254       C  0.84828949  0.27426223  0.75172779     0.12300
S1255       S  0.84700445  0.28565762  0.77544469    -0.05900
C1256       C  0.86182028  0.28558503  0.76638771    -0.09300
C1257       C  0.86099279  0.27912411  0.75395367    -0.25900
S1258       S  0.82297531  0.25516199  0.72652924    -0.03100
C1259       C  0.80851348  0.25411193  0.73604266    -0.16600
C1260       C  0.80948990  0.25978478  0.74882921    -0.14600
H1261       H  0.81981139  0.27393122  0.77090913     0.20800
H1262       H  0.85042674  0.26578035  0.73157537     0.16800
H1263       H  0.86923137  0.27814573  0.74685923     0.19300
H1264       H  0.80136240  0.26022519  0.75610027     0.12700
C1265       C  0.16789065  0.25862366  0.74725944     0.16600
C1266       C  0.18095054  0.25927651  0.74194518    -0.32500
C1267       C  0.18624614  0.27209754  0.73907644     0.20900
C1268       C  0.17897849  0.28379964  0.74166546     0.03100
C1269       C  0.16583072  0.28313933  0.74682724    -0.22200
C1270       C  0.16043309  0.27027754  0.74945053     0.12300
S1271       S  0.15970573  0.24403141  0.75139002    -0.05900
C1272       C  0.14589823  0.25363445  0.75583158    -0.09300
C1273       C  0.14776862  0.26747599  0.75426782    -0.25900
S1274       S  0.18745498  0.29837742  0.73794576    -0.03100
C1275       C  0.20078142  0.28858479  0.73248150    -0.16600
C1276       C  0.19866819  0.27477218  0.73364266    -0.14600
H1277       H  0.18672095  0.25016658  0.74006896     0.20800
H1278       H  0.16005132  0.29224670  0.74868331     0.16800
H1279       H  0.14029629  0.27510308  0.75659844     0.19300
H1280       H  0.20592783  0.26709120  0.73082019     0.12700
C1281       C  0.99699196  0.28225946  0.77622521     0.16600
C1282       C  0.01104681  0.28261364  0.77642747    -0.32500
C1283       C  0.01795343  0.27052556  0.77371153     0.20900
C1284       C  0.01112829  0.25862360  0.77096416     0.03100
C1285       C  0.99708886  0.25834669  0.77043612    -0.22200
C1286       C  0.99018467  0.27043563  0.77312243     0.12300
S1287       S  0.98682516  0.29555078  0.78031930    -0.05900
C1288       C  0.97322740  0.28513560  0.77769996    -0.09300
C1289       C  0.97651295  0.27207451  0.77373946    -0.25900
S1290       S  0.02120636  0.24480459  0.76910319    -0.03100
C1291       C  0.03480723  0.25516679  0.77183976    -0.16600
C1292       C  0.03160252  0.26864819  0.77402303    -0.14600
H1293       H  0.01635084  0.29182426  0.77893967     0.20800
H1294       H  0.99177286  0.24903170  0.76837775     0.16800
H1295       H  0.96932339  0.26406887  0.77202320     0.19300
H1296       H  0.03879982  0.27649732  0.77632779     0.12700
C1297       C  0.00109896  0.02014114  0.93565010     0.16600
C1298       C  0.00527392  0.03027896  0.92671947    -0.32500
C1299       C  0.01298569  0.02635584  0.91545204     0.20900
C1300       C  0.01625873  0.01290792  0.91311944     0.03100
C1301       C  0.01228772  0.00280766  0.92216951    -0.22200
C1302       C  0.00470557  0.00674993  0.93350548     0.12300
S1303       S  0.99141674  0.02276007  0.94971150    -0.05900
C1304       C  0.99252208  0.00568427  0.95296275    -0.09300
C1305       C  0.99992726  0.99842706  0.94347080    -0.25900
S1306       S  0.02496297  0.01010089  0.89848301    -0.03100
C1307       C  0.02436715  0.02725212  0.89549073    -0.16600
C1308       C  0.01778502  0.03466842  0.90546832    -0.14600
H1309       H  0.00253177  0.04075328  0.92841946     0.20800
H1310       H  0.01489997  0.99231215  0.92038930     0.16800
H1311       H  0.00161230  0.98761482  0.94377620     0.19300
H1312       H  0.01620400  0.04549598  0.90521115     0.12700
C1313       C  0.07309007  0.13449010  0.83200023     0.16600
C1314       C  0.07159912  0.14844133  0.82999568    -0.32500
C1315       C  0.08084821  0.15485327  0.82143948     0.20900
C1316       C  0.09138265  0.14781769  0.81549055     0.03100
C1317       C  0.09290996  0.13388954  0.81755044    -0.22200
C1318       C  0.08340860  0.12739383  0.82573933     0.12300
S1319       S  0.06234087  0.12461019  0.84114506    -0.05900
C1320       C  0.07157972  0.11071942  0.83608431    -0.09300
C1321       C  0.08256423  0.11376938  0.82801451    -0.25900
S1322       S  0.10122559  0.15735460  0.80506046    -0.03100
C1323       C  0.09076997  0.17086515  0.80836113    -0.16600
C1324       C  0.08044198  0.16806511  0.81737565    -0.14600
H1325       H  0.06332015  0.15396480  0.83452295     0.20800
H1326       H  0.10088188  0.12826741  0.81259896     0.16800
H1327       H  0.08936492  0.10634732  0.82369772     0.19300
H1328       H  0.07279318  0.17522049  0.82051566     0.12700
C1329       C  0.00804051  0.00652780  0.58717989     0.16600
C1330       C  0.00166446  0.00722230  0.57463072    -0.32500
C1331       C  0.99960080  0.02008575  0.56909152     0.20900
C1332       C  0.00390549  0.03170037  0.57566096     0.03100
C1333       C  0.01006403  0.03101669  0.58828430    -0.22200
C1334       C  0.01194117  0.01819332  0.59390409     0.12300
S1335       S  0.01168601  0.99193538  0.59554661    -0.05900
C1336       C  0.01821461  0.00168345  0.60839684    -0.09300
C1337       C  0.01766718  0.01549058  0.60611564    -0.25900
S1338       S  0.00118699  0.04627299  0.56699494    -0.03100
C1339       C  0.99388291  0.03669777  0.55448958    -0.16600
C1340       C  0.99363575  0.02291453  0.55698970    -0.14600
H1341       H  0.99849926  0.99814391  0.56939962     0.20800
H1342       H  0.01331338  0.04008998  0.59347386     0.16800
H1343       H  0.02138170  0.02315865  0.61296741     0.19300
H1344       H  0.98963804  0.01536813  0.55016562     0.12700
C1345       C  0.04292405  0.00803533  0.76506404     0.16600
C1346       C  0.04305289  0.99877364  0.75429717    -0.32500
C1347       C  0.04209273  0.00395004  0.74119906     0.20900
C1348       C  0.04070252  0.01768443  0.73888787     0.03100
C1349       C  0.04065828  0.02694591  0.74964344    -0.22200
C1350       C  0.04197891  0.02180271  0.76271037     0.12300
S1351       S  0.04448987  0.00390771  0.78170903    -0.05900
C1352       C  0.04433892  0.02093977  0.78544126    -0.09300
C1353       C  0.04289252  0.02923988  0.77434756    -0.25900
S1354       S  0.03970940  0.02189063  0.72222479    -0.03100
C1355       C  0.04162137  0.00500172  0.71831894    -0.16600
C1356       C  0.04271426  0.99664799  0.72943809    -0.14600
H1357       H  0.04412225  0.98803236  0.75602982     0.20800
H1358       H  0.03990335  0.03771097  0.74789011     0.16800
H1359       H  0.04270059  0.04018273  0.77476929     0.19300
H1360       H  0.04403307  0.98578744  0.72894478     0.12700
C1361       C  0.92742584  0.40773680  0.83621949     0.16600
C1362       C  0.92014061  0.39921212  0.82759361    -0.32500
C1363       C  0.92021333  0.38530635  0.83029188     0.20900
C1364       C  0.92707869  0.38018560  0.84123824     0.03100
C1365       C  0.93393614  0.38877681  0.85015430    -0.22200
C1366       C  0.93406454  0.40265855  0.84732607     0.12300
S1367       S  0.93030914  0.42445531  0.83338225    -0.05900
C1368       C  0.94062652  0.42467560  0.84726653    -0.09300
C1369       C  0.94145958  0.41241254  0.85388895    -0.25900
S1370       S  0.92753395  0.36295671  0.84177912    -0.03100
C1371       C  0.91828886  0.36259676  0.82717939    -0.16600
C1372       C  0.91492196  0.37524306  0.82229460    -0.14600
H1373       H  0.91526137  0.40315620  0.81874129     0.20800
H1374       H  0.93956161  0.38472295  0.85849320     0.16800
H1375       H  0.94798432  0.41046792  0.86232654     0.19300
H1376       H  0.90976876  0.37696141  0.81289811     0.12700
C1377       C  0.00544215  0.51442842  0.60110910     0.16600
C1378       C  0.00956221  0.50452471  0.59169572    -0.32500
C1379       C  0.01416484  0.50890269  0.57902171     0.20900
C1380       C  0.01476595  0.52253851  0.57593540     0.03100
C1381       C  0.01034184  0.53238926  0.58520722    -0.22200
C1382       C  0.00564693  0.52801644  0.59781216     0.12300
S1383       S  0.00009218  0.51134724  0.61724810    -0.05900
C1384       C  0.99786864  0.52854066  0.61950033    -0.09300
C1385       C  0.00116955  0.53611485  0.60822485    -0.25900
S1386       S  0.02147912  0.52587953  0.56041362    -0.03100
C1387       C  0.02321597  0.50871855  0.55784711    -0.16600
C1388       C  0.01880114  0.50089585  0.56856638    -0.14600
H1389       H  0.00935321  0.49389247  0.59420028     0.20800
H1390       H  0.01072712  0.54303421  0.58277078     0.16800
H1391       H  0.00059826  0.54703184  0.60774502     0.19300
H1392       H  0.01928759  0.48996330  0.56881856     0.12700
C1393       C  0.98619095  0.52966299  0.75627305     0.16600
C1394       C  0.98547278  0.53035154  0.77038961    -0.32500
C1395       C  0.98754873  0.51837002  0.77756506     0.20900
C1396       C  0.99034750  0.50628473  0.77094567     0.03100
C1397       C  0.99142221  0.50567425  0.75685088    -0.22200
C1398       C  0.98920561  0.51762325  0.74966727     0.12300
S1399       S  0.98270827  0.54275209  0.74577211    -0.05900
C1400       C  0.98534302  0.53193685  0.73228213    -0.09300
C1401       C  0.98892138  0.51890264  0.73588057    -0.25900
S1402       S  0.99136339  0.49265963  0.78130418    -0.03100
C1403       C  0.98801025  0.50331430  0.79475007    -0.16600
C1404       C  0.98637989  0.51677017  0.79127497    -0.14600
H1405       H  0.98294239  0.53971529  0.77552606     0.20800
H1406       H  0.99343014  0.49619793  0.75169016     0.16800
H1407       H  0.99061968  0.51066909  0.72882622     0.19300
H1408       H  0.98383828  0.52481479  0.79829569     0.12700
C1409       C  0.18433465  0.76900830  0.76849984     0.16600
C1410       C  0.17133606  0.77444789  0.76848984    -0.32500
C1411       C  0.16593190  0.77834778  0.75608800     0.20900
C1412       C  0.17326483  0.77723249  0.74422210     0.03100
C1413       C  0.18621838  0.77157102  0.74419621    -0.22200
C1414       C  0.19150366  0.76733961  0.75659164     0.12300
S1415       S  0.19263865  0.76378147  0.78254626    -0.05900
C1416       C  0.20581103  0.75887176  0.77230153    -0.09300
C1417       C  0.20377839  0.76132805  0.75868860    -0.25900
S1418       S  0.16493315  0.78290884  0.73030133    -0.03100
C1419       C  0.15126738  0.78630868  0.74052593    -0.16600
C1420       C  0.15327705  0.78337634  0.75400266    -0.14600
H1421       H  0.16563277  0.77550411  0.77775529     0.20800
H1422       H  0.19188316  0.77042556  0.73491871     0.16800
H1423       H  0.21096915  0.75900409  0.75078713     0.19300
H1424       H  0.14582864  0.78482116  0.76186672     0.12700
C1425       C  0.07957038  0.87411903  0.66633167     0.16600
C1426       C  0.07191492  0.88370466  0.65938686    -0.32500
C1427       C  0.07543499  0.89737123  0.66086230     0.20900
C1428       C  0.08623204  0.90123861  0.66872164     0.03100
C1429       C  0.09417019  0.89163599  0.67522654    -0.22200
C1430       C  0.09053364  0.87802589  0.67393283     0.12300
S1431       S  0.07573668  0.85735407  0.66755930    -0.05900
C1432       C  0.08906223  0.85562811  0.67839325    -0.09300
C1433       C  0.09618983  0.86740904  0.68065258    -0.25900
S1434       S  0.08793553  0.91825312  0.67069018    -0.03100
C1435       C  0.07395352  0.92028285  0.66082051    -0.16600
C1436       C  0.06845918  0.90830751  0.65606863    -0.14600
H1437       H  0.06318508  0.88071187  0.65368780     0.20800
H1438       H  0.10240021  0.89470137  0.68160224     0.16800
H1439       H  0.10442405  0.86836407  0.68764042     0.19300
H1440       H  0.05936441  0.90761840  0.65022271     0.12700
C1441       C  0.84719516  0.77010338  0.75480153     0.16600
C1442       C  0.83819849  0.78070572  0.75750852    -0.32500
C1443       C  0.82663712  0.77778936  0.76505575     0.20900
C1444       C  0.82416784  0.76489878  0.76984588     0.03100
C1445       C  0.83305934  0.75419138  0.76690466    -0.22200
C1446       C  0.84459500  0.75709541  0.75921042     0.12300
S1447       S  0.86204603  0.77180945  0.74632965    -0.05900
C1448       C  0.86478257  0.75475900  0.74847381    -0.09300
C1449       C  0.85458174  0.74817518  0.75542018    -0.25900
S1450       S  0.80980524  0.76369341  0.77933371    -0.03100
C1451       C  0.80695994  0.78067227  0.77652725    -0.16600
C1452       C  0.81676747  0.78681266  0.76872289    -0.14600
H1453       H  0.84019368  0.79084199  0.75398564     0.20800
H1454       H  0.83113453  0.74408667  0.77054755     0.16800
H1455       H  0.85465550  0.73753257  0.75788757     0.19300
H1456       H  0.81676311  0.79739388  0.76599989     0.12700
C1457       C  0.91888738  0.64638492  0.69178081     0.16600
C1458       C  0.91914197  0.63220803  0.69135548    -0.32500
C1459       C  0.92826438  0.62596214  0.68243741     0.20900
C1460       C  0.93629931  0.63344032  0.67383142     0.03100
C1461       C  0.93585589  0.64759966  0.67407628    -0.22200
C1462       C  0.92723110  0.65384574  0.68345929     0.12300
S1463       S  0.90995404  0.65589842  0.70319487    -0.05900
C1464       C  0.91803472  0.66998016  0.69708863    -0.09300
C1465       C  0.92676111  0.66737064  0.68645273    -0.25900
S1466       S  0.94745683  0.62401605  0.66455695    -0.03100
C1467       C  0.94166012  0.60991530  0.67280177    -0.16600
C1468       C  0.93128369  0.61245295  0.68186000    -0.14600
H1469       H  0.91309575  0.62632127  0.69824043     0.20800
H1470       H  0.94253563  0.65349094  0.66780956     0.16800
H1471       H  0.93297183  0.67490576  0.68162091     0.19300
H1472       H  0.92667297  0.60490097  0.68821638     0.12700
C1473       C  0.99444261  0.76901367  0.73799365     0.16600
C1474       C  0.00411217  0.77926958  0.73782506    -0.32500
C1475       C  0.01761264  0.77541005  0.73673395     0.20900
C1476       C  0.02141684  0.76192641  0.73626524     0.03100
C1477       C  0.01172375  0.75164082  0.73642806    -0.22200
C1478       C  0.99816749  0.75552562  0.73710601     0.12300
S1479       S  0.97751588  0.77168401  0.73837418    -0.05900
C1480       C  0.97534923  0.75447234  0.73681190    -0.09300
C1481       C  0.98724261  0.74712834  0.73640748    -0.25900
S1482       S  0.03836996  0.75945712  0.73474177    -0.03100
C1483       C  0.04025070  0.77676993  0.73430754    -0.16600
C1484       C  0.02834394  0.78393999  0.73550622    -0.14600
H1485       H  0.00121507  0.78982467  0.73813742     0.20800
H1486       H  0.01459943  0.74109897  0.73567794     0.16800
H1487       H  0.98788400  0.73624781  0.73530505     0.19300
H1488       H  0.02756389  0.79485824  0.73524437     0.12700
C1489       C  0.01694282  0.51831192  0.94526268     0.16600
C1490       C  0.01245231  0.50729149  0.93746979    -0.32500
C1491       C  0.00517547  0.51008253  0.92571501     0.20900
C1492       C  0.00262591  0.52327838  0.92186140     0.03100
C1493       C  0.00686142  0.53426922  0.92978899    -0.22200
C1494       C  0.01400722  0.53147640  0.94158617     0.12300
S1495       S  0.02631562  0.51713183  0.95959893    -0.05900
C1496       C  0.02599229  0.53454524  0.96084720    -0.09300
C1497       C  0.01902012  0.54081289  0.95056324    -0.25900
S1498       S  0.99448105  0.52462231  0.90684966    -0.03100
C1499       C  0.99425485  0.50720199  0.90574766    -0.16600
C1500       C  0.00020734  0.50078975  0.91660263    -0.14600
H1501       H  0.01467121  0.49699861  0.94035881     0.20800
H1502       H  0.00481071  0.54456948  0.92679942     0.16800
H1503       H  0.01784002  0.55164894  0.94960657     0.19300
H1504       H  0.00127223  0.48994262  0.91753611     0.12700
C1505       C  0.24596337  0.76840699  0.17201222     0.16600
C1506       C  0.24644164  0.76276793  0.18495130    -0.32500
C1507       C  0.25887467  0.76257266  0.19153710     0.20900
C1508       C  0.27029561  0.76786727  0.18557285     0.03100
C1509       C  0.26987773  0.77318959  0.17251146    -0.22200
C1510       C  0.25748462  0.77327735  0.16587860     0.12300
S1511       S  0.23178626  0.77020383  0.16255343    -0.05900
C1512       C  0.24153700  0.77734078  0.15008243    -0.09300
C1513       C  0.25504069  0.77821189  0.15323113    -0.25900
S1514       S  0.28428767  0.76715421  0.19544132    -0.03100
C1515       C  0.27475724  0.75931410  0.20762700    -0.16600
C1516       C  0.26141475  0.75749749  0.20411583    -0.14600
H1517       H  0.23749664  0.75882201  0.18972688     0.20800
H1518       H  0.27880879  0.77720071  0.16776434     0.16800
H1519       H  0.26263122  0.78254120  0.14673065     0.19300
H1520       H  0.25396156  0.75271497  0.21045733     0.12700
C1521       C  0.24423601  0.76557706  0.82978721     0.16600
C1522       C  0.24509946  0.77227505  0.84230826    -0.32500
C1523       C  0.25775331  0.77305597  0.84845745     0.20900
C1524       C  0.26904907  0.76753474  0.84233820     0.03100
C1525       C  0.26811972  0.76056763  0.83000610    -0.22200
C1526       C  0.25547697  0.75968639  0.82392328     0.12300
S1527       S  0.23001313  0.76408684  0.82029241    -0.05900
C1528       C  0.23926286  0.75519866  0.80841077    -0.09300
C1529       C  0.25265357  0.75357787  0.81179188    -0.25900
S1530       S  0.28359659  0.77022778  0.85099039    -0.03100
C1531       C  0.27438332  0.77862663  0.86319053    -0.16600
C1532       C  0.26072644  0.77925346  0.86054181    -0.14600
H1533       H  0.23633266  0.77682964  0.84696626     0.20800
H1534       H  0.27692028  0.75617487  0.82525655     0.16800
H1535       H  0.26004623  0.74850585  0.80550960     0.19300
H1536       H  0.25340693  0.78420600  0.86700027     0.12700
C1537       C  0.25860803  0.78652947  0.99301966     0.16600
C1538       C  0.24859100  0.78392070  0.00264227    -0.32500
C1539       C  0.25168752  0.78617884  0.01625896     0.20900
C1540       C  0.26426349  0.79058856  0.02016797     0.03100
C1541       C  0.27425509  0.79324125  0.01054238    -0.22200
C1542       C  0.27109176  0.79119653  0.99691500     0.12300
S1543       S  0.25677724  0.78480894  0.97596561    -0.05900
C1544       C  0.27294029  0.79067151  0.97402027    -0.09300
C1545       C  0.27933134  0.79360488  0.98608351    -0.25900
S1546       S  0.26597150  0.79281357  0.03718317    -0.03100
C1547       C  0.24946088  0.78808809  0.03903581    -0.16600
C1548       C  0.24313585  0.78480017  0.02703538    -0.14600
H1549       H  0.23875356  0.78047928  0.99963695     0.20800
H1550       H  0.28401537  0.79691538  0.01353140     0.16800
H1551       H  0.28944670  0.79742954  0.98693073     0.19300
H1552       H  0.23275407  0.78175538  0.02622198     0.12700
C1553       C  0.99544608  0.94887086  0.99834981     0.16600
C1554       C  0.99590214  0.93651668  0.00523871    -0.32500
C1555       C  0.00842151  0.93011290  0.00649232     0.20900
C1556       C  0.01999490  0.93584429  0.00128545     0.03100
C1557       C  0.01949949  0.94806886  0.99419867    -0.22200
C1558       C  0.00696602  0.95437350  0.99277819     0.12300
S1559       S  0.98134766  0.95845455  0.99606248    -0.05900
C1560       C  0.99101519  0.96983994  0.98721537    -0.09300
C1561       C  0.00445430  0.96629748  0.98622737    -0.25900
S1562       S  0.03425871  0.92676168  0.00432904    -0.03100
C1563       C  0.02452923  0.91490817  0.01244336    -0.16600
C1564       C  0.01093960  0.91803608  0.01277943    -0.14600
H1565       H  0.98690544  0.93211903  0.00948674     0.20800
H1566       H  0.02850698  0.95250234  0.99001118     0.16800
H1567       H  0.01203897  0.97227578  0.98119862     0.19300
H1568       H  0.00331212  0.91188097  0.01751307     0.12700
C1569       C  0.12816817  0.85283956  0.06972357     0.16600
C1570       C  0.14194919  0.85009305  0.06894452    -0.32500
C1571       C  0.14736588  0.84118067  0.07843208     0.20900
C1572       C  0.13954079  0.83559647  0.08854578     0.03100
C1573       C  0.12577835  0.83838173  0.08935578    -0.22200
C1574       C  0.12028845  0.84694888  0.07960949     0.12300
S1575       S  0.11941782  0.86242775  0.05847335    -0.05900
C1576       C  0.10493298  0.85804687  0.06689400    -0.09300
C1577       C  0.10698656  0.84991785  0.07804791    -0.25900
S1578       S  0.14796774  0.82475081  0.09885452    -0.03100
C1579       C  0.16207276  0.82741905  0.08915897    -0.16600
C1580       C  0.16027965  0.83645485  0.07869078    -0.14600
H1581       H  0.14809143  0.85433455  0.06100323     0.20800
H1582       H  0.11953649  0.83371348  0.09697184     0.16800
H1583       H  0.09909267  0.84593523  0.08440706     0.19300
H1584       H  0.16796573  0.83920140  0.07146633     0.12700
C1585       C  0.99877284  0.60974187  0.00186878     0.16600
C1586       C  0.99957597  0.59743538  0.99478531    -0.32500
C1587       C  0.01177644  0.59036410  0.99505400     0.20900
C1588       C  0.02266764  0.59526021  0.00217263     0.03100
C1589       C  0.02195773  0.60771446  0.00903014    -0.22200
C1590       C  0.00978851  0.61485747  0.00863911     0.12300
S1591       S  0.98470256  0.61954892  0.00321676    -0.05900
C1592       C  0.99381510  0.63083840  0.01273848    -0.09300
C1593       C  0.00705749  0.62708298  0.01473437    -0.25900
S1594       S  0.03632488  0.58480428  0.00182186    -0.03100
C1595       C  0.02736486  0.57381972  0.99175120    -0.16600
C1596       C  0.01445910  0.57815123  0.98892474    -0.14600
H1597       H  0.99101563  0.59347394  0.98941153     0.20800
H1598       H  0.03047213  0.61160324  0.01452795     0.16800
H1599       H  0.01420784  0.63285493  0.02056654     0.19300
H1600       H  0.00732153  0.57253244  0.98293009     0.12700
C1601       C  0.99787848  0.76629216  0.02617641     0.16600
C1602       C  0.99701278  0.78039741  0.02661532    -0.32500
C1603       C  0.00894236  0.78766409  0.02784082     0.20900
C1604       C  0.02126232  0.78118587  0.02843201     0.03100
C1605       C  0.02217553  0.76702070  0.02752450    -0.22200
C1606       C  0.01015721  0.75970746  0.02650328     0.12300
S1607       S  0.98437901  0.75587030  0.02637532    -0.05900
C1608       C  0.99525631  0.74235964  0.02696559    -0.09300
C1609       C  0.00872637  0.74586187  0.02672549    -0.25900
S1610       S  0.03438842  0.79183387  0.03140239    -0.03100
C1611       C  0.02309865  0.80507155  0.03178593    -0.16600
C1612       C  0.00995733  0.80137685  0.02951728    -0.14600
H1613       H  0.98738780  0.78547225  0.02660815     0.20800
H1614       H  0.03175236  0.76191919  0.02820112     0.16800
H1615       H  0.01694561  0.73875374  0.02747030     0.19300
H1616       H  0.00151113  0.80826564  0.02981086     0.12700
C1617       C  0.39169833  0.85717733  0.93796406     0.16600
C1618       C  0.37769319  0.85586940  0.93847086    -0.32500
C1619       C  0.37160769  0.84718944  0.92904593     0.20900
C1620       C  0.37904485  0.84046882  0.91923254     0.03100
C1621       C  0.39303519  0.84184041  0.91867525    -0.22200
C1622       C  0.39915957  0.85015088  0.92838555     0.12300
S1623       S  0.40114260  0.86615536  0.94928449    -0.05900
C1624       C  0.41530472  0.85995586  0.94133913    -0.09300
C1625       C  0.41266985  0.85171579  0.93027290    -0.25900
S1626       S  0.36981180  0.82994935  0.90912137    -0.03100
C1627       C  0.35584430  0.83425655  0.91852271    -0.16600
C1628       C  0.35832146  0.84364069  0.92869852    -0.14600
H1629       H  0.37184639  0.86096337  0.94621526     0.20800
H1630       H  0.39894374  0.83624768  0.91132874     0.16800
H1631       H  0.42026908  0.84664102  0.92425004     0.19300
H1632       H  0.35085519  0.84732917  0.93579352     0.12700
C1633       C  0.51837657  0.60055401  0.01006469     0.16600
C1634       C  0.51797492  0.58777331  0.01619767    -0.32500
C1635       C  0.50534097  0.58185996  0.01844473     0.20900
C1636       C  0.49365855  0.58830836  0.01455834     0.03100
C1637       C  0.49405383  0.60116760  0.00865883    -0.22200
C1638       C  0.50665334  0.60714996  0.00657874     0.12300
S1639       S  0.53264905  0.60938974  0.00624679    -0.05900
C1640       C  0.52271508  0.62228705  0.00020497    -0.09300
C1641       C  0.50906565  0.61962760  0.00103383    -0.25900
S1642       S  0.47939991  0.57913506  0.01734401    -0.03100
C1643       C  0.48919247  0.56654246  0.02409352    -0.16600
C1644       C  0.50282062  0.56944471  0.02413624    -0.14600
H1645       H  0.52710796  0.58263519  0.01902496     0.20800
H1646       H  0.48492641  0.60625503  0.00572430     0.16800
H1647       H  0.50128688  0.62643034  0.99767374     0.19300
H1648       H  0.51049644  0.56264658  0.02773743     0.12700
C1649       C  0.49447329  0.77442056  0.97787362     0.16600
C1650       C  0.49312128  0.76029448  0.97727429    -0.32500
C1651       C  0.50436868  0.75240845  0.98041010     0.20900
C1652       C  0.51641594  0.75838052  0.98397032     0.03100
C1653       C  0.51767145  0.77249531  0.98488517    -0.22200
C1654       C  0.50643203  0.78037296  0.98173183     0.12300
S1655       S  0.48232342  0.78568500  0.97350194    -0.05900
C1656       C  0.49339790  0.79860940  0.97699105    -0.09300
C1657       C  0.50583364  0.79427017  0.98141193    -0.25900
S1658       S  0.52923656  0.74720122  0.98609671    -0.03100
C1659       C  0.51825787  0.73428390  0.98233775    -0.16600
C1660       C  0.50530171  0.73852411  0.97966518    -0.14600
H1661       H  0.48381597  0.75566473  0.97414143     0.20800
H1662       H  0.52711515  0.77713701  0.98755153     0.16800
H1663       H  0.51412358  0.80088849  0.98381288     0.19300
H1664       H  0.49724351  0.73189779  0.97657969     0.12700
C1665       C  0.76780305  0.77112542  0.17305306     0.16600
C1666       C  0.76742107  0.77813434  0.18540341    -0.32500
C1667       C  0.75480650  0.78089087  0.19116805     0.20900
C1668       C  0.74308761  0.77667959  0.18500689     0.03100
C1669       C  0.74345247  0.76992876  0.17251771    -0.22200
C1670       C  0.75606681  0.76733675  0.16667008     0.12300
S1671       S  0.78210489  0.76652804  0.16456085    -0.05900
C1672       C  0.77218936  0.75975249  0.15207896    -0.09300
C1673       C  0.75851731  0.76095731  0.15456025    -0.25900
S1674       S  0.72885539  0.78021957  0.19405449    -0.03100
C1675       C  0.73876189  0.78774515  0.20613312    -0.16600
C1676       C  0.75237214  0.78743788  0.20319876    -0.14600
H1677       H  0.77656522  0.78122065  0.19035295     0.20800
H1678       H  0.73431146  0.76674022  0.16762493     0.16800
H1679       H  0.75077624  0.75726774  0.14789302     0.19300
H1680       H  0.76009654  0.79141737  0.20972248     0.12700
C1681       C  0.86768314  0.68981730  0.08007870     0.16600
C1682       C  0.87664051  0.68257829  0.07174312    -0.32500
C1683       C  0.89036903  0.68539169  0.07292531     0.20900
C1684       C  0.89494816  0.69479447  0.08224167     0.03100
C1685       C  0.88602354  0.70166226  0.09092967    -0.22200
C1686       C  0.87226151  0.69908987  0.08952085     0.12300
S1687       S  0.85066677  0.68927461  0.07874066    -0.05900
C1688       C  0.84958329  0.70175210  0.09095708    -0.09300
C1689       C  0.86190557  0.70582641  0.09598038    -0.25900
S1690       S  0.91168942  0.69807589  0.08098513    -0.03100
C1691       C  0.91259341  0.68673329  0.06771691    -0.16600
C1692       C  0.90050611  0.68052069  0.06471043    -0.14600
H1693       H  0.87300240  0.67560737  0.06415073     0.20800
H1694       H  0.88960017  0.70923870  0.09795626     0.16800
H1695       H  0.86325461  0.71389692  0.10326917     0.19300
H1696       H  0.89903191  0.67357581  0.05637245     0.12700
C1697       C  0.75901528  0.76629387  0.85121192     0.16600
C1698       C  0.76973106  0.76834578  0.84221973    -0.32500
C1699       C  0.76698650  0.77476435  0.82996572     0.20900
C1700       C  0.75414918  0.77905149  0.82684762     0.03100
C1701       C  0.74335630  0.77664058  0.83567022    -0.22200
C1702       C  0.74608930  0.77012746  0.84788713     0.12300
S1703       S  0.76043416  0.75952756  0.86694269    -0.05900
C1704       C  0.74338683  0.76158959  0.86898452    -0.09300
C1705       C  0.73702990  0.76722460  0.85795948    -0.25900
S1706       S  0.75309649  0.78752369  0.81192457    -0.03100
C1707       C  0.77007561  0.78497647  0.80967522    -0.16600
C1708       C  0.77612439  0.77794355  0.82005565    -0.14600
H1709       H  0.77981936  0.76530122  0.84477608     0.20800
H1710       H  0.73331223  0.77992413  0.83323106     0.16800
H1711       H  0.72642217  0.76948381  0.85752425     0.19300
H1712       H  0.78671453  0.77559661  0.82049025     0.12700
C1713       C  0.63771401  0.70429810  0.92650719     0.16600
C1714       C  0.62395662  0.70154051  0.92613183    -0.32500
C1715       C  0.61871430  0.69280874  0.93591175     0.20900
C1716       C  0.62682758  0.68667623  0.94536827     0.03100
C1717       C  0.64060083  0.68941707  0.94572948    -0.22200
C1718       C  0.64576255  0.69854151  0.93625663     0.12300
S1719       S  0.64579537  0.71556120  0.91630108    -0.05900
C1720       C  0.66000763  0.71288669  0.92562498    -0.09300
C1721       C  0.65855306  0.70351224  0.93584258    -0.25900
S1722       S  0.61835553  0.67692202  0.95677194    -0.03100
C1723       C  0.60370074  0.68160582  0.94902384    -0.16600
C1724       C  0.60545730  0.68995952  0.93798708    -0.14600
H1725       H  0.61752550  0.70641749  0.91888406     0.20800
H1726       H  0.64691239  0.68507468  0.95340651     0.16800
H1727       H  0.66632252  0.70088622  0.94292962     0.19300
H1728       H  0.59738150  0.69420700  0.93212938     0.12700
C1729       C  0.74178536  0.75910127  0.00478826     0.16600
C1730       C  0.74187485  0.75900488  0.01894249    -0.32500
C1731       C  0.75332690  0.75385929  0.02528948     0.20900
C1732       C  0.76416971  0.74908690  0.01783745     0.03100
C1733       C  0.76421515  0.74951699  0.00374555    -0.22200
C1734       C  0.75279828  0.75461577  0.99741468     0.12300
S1735       S  0.72842240  0.76361431  0.99512435    -0.05900
C1736       C  0.73785320  0.75952184  0.98103346    -0.09300
C1737       C  0.75069088  0.75505840  0.98379301    -0.25900
S1738       S  0.77671348  0.74237884  0.02722341    -0.03100
C1739       C  0.76740455  0.74613484  0.04144562    -0.16600
C1740       C  0.75519286  0.75233932  0.03891399    -0.14600
H1741       H  0.73325954  0.76240790  0.02472977     0.20800
H1742       H  0.77265003  0.74568415  0.99794974     0.16800
H1743       H  0.75782382  0.75155939  0.97626969     0.19300
H1744       H  0.74793901  0.75522405  0.04657038     0.12700
C1745       C  0.51232443  0.95005726  0.01677925     0.16600
C1746       C  0.50146166  0.94167656  0.01351446    -0.32500
C1747       C  0.50406394  0.93002923  0.00575276     0.20900
C1748       C  0.51695039  0.92680356  0.00151343     0.03100
C1749       C  0.52778562  0.93537637  0.00449356    -0.22200
C1750       C  0.52515717  0.94709229  0.01219232     0.12300
S1751       S  0.51130197  0.96420076  0.02672165    -0.05900
C1752       C  0.52831116  0.96636924  0.02452501    -0.09300
C1753       C  0.53436274  0.95654323  0.01644165    -0.25900
S1754       S  0.51810301  0.91173443  0.99298819    -0.03100
C1755       C  0.50099620  0.90989267  0.99489568    -0.16600
C1756       C  0.49484766  0.92048057  0.00181326    -0.14600
H1757       H  0.49143667  0.94402094  0.01706409     0.20800
H1758       H  0.53784986  0.93290496  0.00115334     0.16800
H1759       H  0.54497173  0.95613213  0.01411542     0.19300
H1760       H  0.48424759  0.92097734  0.00416509     0.12700
C1761       C  0.92398052  0.02039433  0.01797359     0.16600
C1762       C  0.93580341  0.01270395  0.01711906    -0.32500
C1763       C  0.94252387  0.01215319  0.00463943     0.20900
C1764       C  0.93784426  0.01919068  0.99359337     0.03100
C1765       C  0.92595662  0.02674021  0.99440280    -0.22200
C1766       C  0.91909438  0.02704388  0.00678206     0.12300
S1767       S  0.91425143  0.02228637  0.03213498    -0.05900
C1768       C  0.90330300  0.03179201  0.02274779    -0.09300
C1769       C  0.90717482  0.03347325  0.00942456    -0.25900
S1770       S  0.94756694  0.01748648  0.97945195    -0.03100
C1771       C  0.95787126  0.00682819  0.98835429    -0.16600
C1772       C  0.95395719  0.00493284  0.00165824    -0.14600
H1773       H  0.93953431  0.00729391  0.02576257     0.20800
H1774       H  0.92215706  0.03204882  0.98572609     0.16800
H1775       H  0.90155131  0.03911310  0.00205276     0.19300
H1776       H  0.95921768  0.99863978  0.00877275     0.12700
C1777       C  0.58750178  0.00865624  0.02149569     0.16600
C1778       C  0.59992416  0.01527254  0.02099084    -0.32500
C1779       C  0.60606825  0.01675505  0.00832725     0.20900
C1780       C  0.60004459  0.01198906  0.99667879     0.03100
C1781       C  0.58779020  0.00508904  0.99722720    -0.22200
C1782       C  0.58170617  0.00349393  0.00989439     0.12300
S1783       S  0.57810148  0.00642663  0.03574826    -0.05900
C1784       C  0.56636237  0.99818995  0.02602538    -0.09300
C1785       C  0.56966443  0.99730112  0.01245728    -0.25900
S1786       S  0.60869133  0.01550044  0.98222378    -0.03100
C1787       C  0.62072440  0.02318952  0.99197786    -0.16600
C1788       C  0.61805814  0.02302901  0.00570753    -0.14600
H1789       H  0.60451006  0.01924255  0.03004147     0.20800
H1790       H  0.58311399  0.00128673  0.98815327     0.16800
H1791       H  0.56342164  0.99268361  0.00482856     0.19300
H1792       H  0.62441132  0.02751008  0.01332147     0.12700
C1793       C  0.75456200  0.04279954  0.99109815     0.16600
C1794       C  0.76850254  0.04399563  0.98989798    -0.32500
C1795       C  0.77612494  0.04222071  0.00153941     0.20900
C1796       C  0.77010706  0.03928007  0.01381148     0.03100
C1797       C  0.75618565  0.03766079  0.01492016    -0.22200
C1798       C  0.74854567  0.03956911  0.00329100     0.12300
S1799       S  0.74359557  0.04600006  0.97847602    -0.05900
C1800       C  0.73070822  0.04291007  0.98967240    -0.09300
C1801       C  0.73480542  0.03941500  0.00249445    -0.25900
S1802       S  0.78085891  0.03916550  0.02705537    -0.03100
C1803       C  0.79358661  0.04305080  0.01594133    -0.16600
C1804       C  0.78968867  0.04413899  0.00265202    -0.14600
H1805       H  0.77315374  0.04674154  0.98042290     0.20800
H1806       H  0.75147600  0.03558258  0.02453877     0.16800
H1807       H  0.72812127  0.03750721  0.01089962     0.19300
H1808       H  0.79622860  0.04712921  0.99445555     0.12700
C1809       C  0.76222967  0.86055304  0.25348043     0.16600
C1810       C  0.75796891  0.85212735  0.24293551    -0.32500
C1811       C  0.75200345  0.83977423  0.24632668     0.20900
C1812       C  0.75025782  0.83598921  0.25964156     0.03100
C1813       C  0.75485851  0.84427322  0.27020416    -0.22200
C1814       C  0.76089946  0.85663114  0.26680172     0.12300
S1815       S  0.76893341  0.87626263  0.25141382    -0.05900
C1816       C  0.77021281  0.87756700  0.26868166    -0.09300
C1817       C  0.76565320  0.86629543  0.27559138    -0.25900
S1818       S  0.74188756  0.82102593  0.26159551    -0.03100
C1819       C  0.74100040  0.81975590  0.24428894    -0.16600
C1820       C  0.74691817  0.83040292  0.23748270    -0.14600
H1821       H  0.75903098  0.85518562  0.23253516     0.20800
H1822       H  0.75355142  0.84134009  0.28061253     0.16800
H1823       H  0.76545504  0.86538991  0.28645011     0.19300
H1824       H  0.74714229  0.83141391  0.22663021     0.12700
C1825       C  0.74560702  0.20310496  0.25413226     0.16600
C1826       C  0.74819973  0.19421790  0.24333793    -0.32500
C1827       C  0.75483717  0.18204571  0.24613084     0.20900
C1828       C  0.75858779  0.17878463  0.25913251     0.03100
C1829       C  0.75626576  0.18781648  0.26988984    -0.22200
C1830       C  0.74975095  0.20007001  0.26706640     0.12300
S1831       S  0.73719159  0.21809356  0.25289138    -0.05900
C1832       C  0.73955224  0.22052922  0.26992312    -0.09300
C1833       C  0.74645369  0.21012281  0.27615710    -0.25900
S1834       S  0.76568610  0.16311618  0.26054496    -0.03100
C1835       C  0.76383773  0.16105071  0.24339534    -0.16600
C1836       C  0.75802158  0.17200014  0.23702127    -0.14600
H1837       H  0.74503205  0.19661567  0.23322400     0.20800
H1838       H  0.75925273  0.18532744  0.28003713     0.16800
H1839       H  0.74869600  0.20980935  0.28680520     0.19300
H1840       H  0.75585021  0.17240592  0.22636165     0.12700
C1841       C  0.83019353  0.09956856  0.11711250     0.16600
C1842       C  0.82233199  0.10764601  0.12575807    -0.32500
C1843       C  0.82180644  0.10411577  0.13940603     0.20900
C1844       C  0.82895529  0.09313536  0.14420743     0.03100
C1845       C  0.83717333  0.08536406  0.13565723    -0.22200
C1846       C  0.83755175  0.08877110  0.12199729     0.12300
S1847       S  0.83063740  0.10100434  0.10002394    -0.05900
C1848       C  0.84088239  0.08694442  0.09945575    -0.09300
C1849       C  0.84391546  0.08161864  0.11192021    -0.25900
S1850       S  0.82569649  0.08935526  0.16059399    -0.03100
C1851       C  0.81456960  0.10269331  0.16105082    -0.16600
C1852       C  0.81369488  0.10984077  0.14914129    -0.14600
H1853       H  0.81635663  0.11588271  0.12189657     0.20800
H1854       H  0.84249968  0.07661738  0.13936842     0.16800
H1855       H  0.84965573  0.07246352  0.11345035     0.19300
H1856       H  0.80678152  0.11808837  0.14741826     0.12700
C1857       C  0.76896911  0.02517253  0.24405673     0.16600
C1858       C  0.76954478  0.01101388  0.24393841    -0.32500
C1859       C  0.77403774  0.00461450  0.25562162     0.20900
C1860       C  0.77765870  0.01198262  0.26696322     0.03100
C1861       C  0.77668456  0.02612078  0.26722173    -0.22200
C1862       C  0.77232426  0.03253299  0.25549125     0.12300
S1863       S  0.76536439  0.03483097  0.23040347    -0.05900
C1864       C  0.76836999  0.04895121  0.24019839    -0.09300
C1865       C  0.77176298  0.04621686  0.25340577    -0.25900
S1866       S  0.78396814  0.00244317  0.27967986    -0.03100
C1867       C  0.78165077  0.98835674  0.26964574    -0.16600
C1868       C  0.77613016  0.99101113  0.25717124    -0.14600
H1869       H  0.76710942  0.00526838  0.23495869     0.20800
H1870       H  0.77968588  0.03189550  0.27600234     0.16800
H1871       H  0.77451860  0.05378800  0.26081408     0.19300
H1872       H  0.77424392  0.98346898  0.24945690     0.12700
C1873       C  0.92072502  0.01705394  0.50822810     0.16600
C1874       C  0.92997914  0.01946960  0.51852709    -0.32500
C1875       C  0.94132972  0.02720534  0.51541298     0.20900
C1876       C  0.94328190  0.03250608  0.50266167     0.03100
C1877       C  0.93410879  0.02992363  0.49228767    -0.22200
C1878       C  0.92285200  0.02197878  0.49534820     0.12300
S1879       S  0.90620835  0.00817001  0.51011899    -0.05900
C1880       C  0.90307240  0.01078965  0.49329303    -0.09300
C1881       C  0.91281188  0.01825919  0.48665870    -0.25900
S1882       S  0.95745092  0.04207340  0.50111133    -0.03100
C1883       C  0.96094296  0.03862519  0.51773462    -0.16600
C1884       C  0.95149047  0.03055697  0.52405920    -0.14600
H1885       H  0.92838321  0.01551177  0.52854730     0.20800
H1886       H  0.93566834  0.03394178  0.48228748     0.16800
H1887       H  0.91242236  0.02104239  0.47614295     0.19300
H1888       H  0.95193467  0.02746006  0.53448515     0.12700
C1889       C  0.84586046  0.95390691  0.38652027     0.16600
C1890       C  0.84643333  0.95260139  0.37244057    -0.32500
C1891       C  0.83691572  0.94421836  0.36620385     0.20900
C1892       C  0.82753042  0.93708870  0.37365250     0.03100
C1893       C  0.82699966  0.93834738  0.38771522    -0.22200
C1894       C  0.83622562  0.94705930  0.39390543     0.12300
S1895       S  0.85580478  0.96436344  0.39597149    -0.05900
C1896       C  0.84656241  0.95979997  0.40993675    -0.09300
C1897       C  0.83657479  0.95040810  0.40730402    -0.25900
S1898       S  0.81653909  0.92786168  0.36417045    -0.03100
C1899       C  0.82436549  0.93403152  0.34998907    -0.16600
C1900       C  0.83511367  0.94253254  0.35261431    -0.14600
H1901       H  0.85366906  0.95823509  0.36657028     0.20800
H1902       H  0.81942317  0.93313002  0.39354065     0.16800
H1903       H  0.82966218  0.94648606  0.41475633     0.19300
H1904       H  0.84102808  0.94756255  0.34497045     0.12700
C1905       C  0.59684865  0.01881546  0.52155534     0.16600
C1906       C  0.58426137  0.02528796  0.52206461    -0.32500
C1907       C  0.57786972  0.02806302  0.50977382     0.20900
C1908       C  0.58368071  0.02430786  0.49758268     0.03100
C1909       C  0.59631442  0.01807459  0.49707411    -0.22200
C1910       C  0.60278636  0.01553056  0.50930095     0.12300
S1911       S  0.60620573  0.01427618  0.53523776    -0.05900
C1912       C  0.61837869  0.00822349  0.52430075    -0.09300
C1913       C  0.61516115  0.00963434  0.51080228    -0.25900
S1914       S  0.57419536  0.02792414  0.48382084    -0.03100
C1915       C  0.56233741  0.03497226  0.49445928    -0.16600
C1916       C  0.56565259  0.03436877  0.50803834    -0.14600
H1917       H  0.57965187  0.02801522  0.53160781     0.20800
H1918       H  0.60090038  0.01529529  0.48753102     0.16800
H1919       H  0.62147078  0.00632576  0.50249266     0.19300
H1920       H  0.55937610  0.03812444  0.51618329     0.12700
C1921       C  0.74856262  0.99735410  0.50499577     0.16600
C1922       C  0.75902856  0.00095077  0.49627947    -0.32500
C1923       C  0.77212910  0.99783213  0.50022744     0.20900
C1924       C  0.77479537  0.99190769  0.51254502     0.03100
C1925       C  0.76432485  0.98836059  0.52129239    -0.22200
C1926       C  0.75118265  0.99099196  0.51709686     0.12300
S1927       S  0.73191304  0.99927148  0.50156417    -0.05900
C1928       C  0.72844555  0.99092675  0.51632820    -0.09300
C1929       C  0.73967023  0.98723950  0.52362012    -0.25900
S1930       S  0.79135858  0.98843136  0.51517435    -0.03100
C1931       C  0.79457741  0.99449895  0.49929015    -0.16600
C1932       C  0.78345168  0.99926569  0.49254961    -0.14600
H1933       H  0.75701710  0.00548262  0.48660434     0.20800
H1934       H  0.76630279  0.98328505  0.53070103     0.16800
H1935       H  0.73943841  0.98182749  0.53305802     0.19300
H1936       H  0.78359096  0.00308644  0.48235419     0.12700
C1937       C  0.75183675  0.18007994  0.75073330     0.16600
C1938       C  0.75439820  0.18902283  0.74009021    -0.32500
C1939       C  0.76100666  0.20120477  0.74308788     0.20900
C1940       C  0.76503808  0.20426650  0.75608794     0.03100
C1941       C  0.76226950  0.19542054  0.76677784    -0.22200
C1942       C  0.75550380  0.18330473  0.76380976     0.12300
S1943       S  0.74426095  0.16466912  0.74909954    -0.05900
C1944       C  0.74566387  0.16263449  0.76628381    -0.09300
C1945       C  0.75186258  0.17339261  0.77280900    -0.25900
S1946       S  0.77370297  0.21913217  0.75746460    -0.03100
C1947       C  0.77172905  0.22138903  0.74036834    -0.16600
C1948       C  0.76463976  0.21106814  0.73406726    -0.14600
H1949       H  0.75147147  0.18653426  0.72989036     0.20800
H1950       H  0.76535919  0.19782517  0.77694642     0.16800
H1951       H  0.75376356  0.17385426  0.78352411     0.19300
H1952       H  0.76267961  0.21055485  0.72336304     0.12700
C1953       C  0.68918476  0.10515204  0.87432080     0.16600
C1954       C  0.68881517  0.10478617  0.88845373    -0.32500
C1955       C  0.68080515  0.09485546  0.89456930     0.20900
C1956       C  0.67308333  0.08601785  0.88700742     0.03100
C1957       C  0.67334053  0.08648264  0.87289777    -0.22200
C1958       C  0.68173590  0.09606349  0.86678114     0.12300
S1959       S  0.69935498  0.11542305  0.86489860    -0.05900
C1960       C  0.69390539  0.10699712  0.85069731    -0.09300
C1961       C  0.68437704  0.09710398  0.85327089    -0.25900
S1962       S  0.66455296  0.07429198  0.89631422    -0.03100
C1963       C  0.67182711  0.08106001  0.91051812    -0.16600
C1964       C  0.68014313  0.09202914  0.90805746    -0.14600
H1965       H  0.69495962  0.11154140  0.89441069     0.20800
H1966       H  0.66769838  0.07929291  0.86693509     0.16800
H1967       H  0.68000795  0.09058018  0.84568059     0.19300
H1968       H  0.68576765  0.09738184  0.91570538     0.12700
C1969       C  0.76685704  0.84100902  0.76866671     0.16600
C1970       C  0.76139173  0.85405309  0.76759664    -0.32500
C1971       C  0.76132740  0.86008256  0.75482382     0.20900
C1972       C  0.76628023  0.85333862  0.74355568     0.03100
C1973       C  0.77196653  0.84037572  0.74466636    -0.22200
C1974       C  0.77223116  0.83443041  0.75749226     0.12300
S1975       S  0.76759216  0.83186111  0.78320594    -0.05900
C1976       C  0.77554338  0.81913069  0.77425692    -0.09300
C1977       C  0.77739761  0.82194466  0.76067418    -0.25900
S1978       S  0.76476881  0.86222465  0.72889275    -0.03100
C1979       C  0.75771089  0.87532946  0.73808000    -0.16600
C1980       C  0.75655122  0.87274150  0.75177472    -0.14600
H1981       H  0.75733595  0.85927024  0.77634539     0.20800
H1982       H  0.77598769  0.83514320  0.73591157     0.16800
H1983       H  0.78209127  0.81512530  0.75347385     0.19300
H1984       H  0.75228631  0.87970162  0.75910698     0.12700
C1985       C  0.69592985  0.94517906  0.63901611     0.16600
C1986       C  0.68785410  0.95256450  0.63020580    -0.32500
C1987       C  0.68625300  0.94752448  0.61709103     0.20900
C1988       C  0.69240392  0.93560804  0.61293434     0.03100
C1989       C  0.70022455  0.92801418  0.62187823    -0.22200
C1990       C  0.70188370  0.93310639  0.63501893     0.12300
S1991       S  0.69998740  0.95032389  0.65487010    -0.05900
C1992       C  0.70982165  0.93605609  0.65629894    -0.09300
C1993       C  0.70974658  0.92768697  0.64500164    -0.25900
S1994       S  0.69030072  0.93196183  0.59622929    -0.03100
C1995       C  0.68094101  0.94658134  0.59487802    -0.16600
C1996       C  0.67949022  0.95375129  0.60684185    -0.14600
H1997       H  0.68336427  0.96207285  0.63331574     0.20800
H1998       H  0.70516233  0.91879202  0.61860241     0.16800
H1999       H  0.71558262  0.91849922  0.64392812     0.19300
H2000       H  0.67443519  0.96340981  0.60781351     0.12700
C2001       C  0.74062124  0.00620418  0.75823377     0.16600
C2002       C  0.73712814  0.01587009  0.76807511    -0.32500
C2003       C  0.73711209  0.02953302  0.76428776     0.20900
C2004       C  0.74075085  0.03344042  0.75139515     0.03100
C2005       C  0.74430535  0.02379583  0.74158817    -0.22200
C2006       C  0.74397771  0.01012935  0.74527213     0.12300
S2007       S  0.74042357  0.98905397  0.76049192    -0.05900
C2008       C  0.74450108  0.98716806  0.74368539    -0.09300
C2009       C  0.74620184  0.99927394  0.73690357    -0.25900
S2010       S  0.73988073  0.05047018  0.74873412    -0.03100
C2011       C  0.73424420  0.05237200  0.76508341    -0.16600
C2012       C  0.73333772  0.04035014  0.77217975    -0.14600
H2013       H  0.73421038  0.01285415  0.77813353     0.20800
H2014       H  0.74687096  0.02678922  0.73142740     0.16800
H2015       H  0.74860234  0.00010378  0.72629215     0.19300
H2016       H  0.72999219  0.03952324  0.78253170     0.12700
C2017       C  0.24629305  0.26955060  0.33622303     0.16600
C2018       C  0.24668767  0.27617946  0.32373716    -0.32500
C2019       C  0.25930877  0.27858568  0.31783890     0.20900
C2020       C  0.27098960  0.27433298  0.32400258     0.03100
C2021       C  0.27060807  0.26793196  0.33659341    -0.22200
C2022       C  0.25801003  0.26575085  0.34260074     0.12300
S2023       S  0.23200661  0.26550293  0.34493121    -0.05900
C2024       C  0.24189926  0.25897344  0.35751302    -0.23700
C2025       C  0.25556474  0.25983425  0.35488838    -0.25900
S2026       S  0.28524225  0.27756304  0.31493503    -0.03100
C2027       C  0.27545797  0.28508212  0.30282888    -0.16600
C2028       C  0.26181834  0.28493940  0.30576670    -0.14600
H2029       H  0.23755162  0.27930474  0.31882654     0.20800
H2030       H  0.27974176  0.26476446  0.34148299     0.16800
H2031       H  0.26329530  0.25620689  0.36155948     0.19300
H2032       H  0.25414202  0.28901963  0.29929401     0.12700
C2033       C  0.25396851  0.27956887  0.68276724     0.16600
C2034       C  0.26464332  0.27625914  0.67402680    -0.32500
C2035       C  0.26167034  0.26919434  0.66207948     0.20900
C2036       C  0.24861178  0.26570400  0.65892116     0.03100
C2037       C  0.23796231  0.26878215  0.66779057    -0.22200
C2038       C  0.24095532  0.27573088  0.67981121     0.12300
S2039       S  0.25542993  0.28866103  0.69740549    -0.05900
C2040       C  0.23835697  0.28709940  0.69977856    -0.09300
C2041       C  0.23197212  0.27984742  0.68963643    -0.25900
S2042       S  0.24703359  0.25769853  0.64367438    -0.03100
C2043       C  0.26419617  0.25874380  0.64161922    -0.16600
C2044       C  0.27066798  0.26511436  0.65226647    -0.14600
H2045       H  0.27481514  0.27918989  0.67637611     0.20800
H2046       H  0.22777006  0.26599274  0.66536414     0.16800
H2047       H  0.22128237  0.27804388  0.68926593     0.19300
H2048       H  0.28136636  0.26682912  0.65273141     0.12700
C2049       C  0.24216175  0.25024833  0.49371203     0.16600
C2050       C  0.24155378  0.24982192  0.50783192    -0.32500
C2051       C  0.25322411  0.24612137  0.51470216     0.20900
C2052       C  0.26497749  0.24306460  0.50779281     0.03100
C2053       C  0.26564165  0.24370064  0.49369272    -0.22200
C2054       C  0.25396247  0.24733543  0.48681882     0.12300
S2055       S  0.22885883  0.25347462  0.48353530    -0.05900
C2056       C  0.23926980  0.25085714  0.46980611    -0.09300
C2057       C  0.25241506  0.24783805  0.47308365    -0.25900
S2058       S  0.27787100  0.23824688  0.51786259    -0.03100
C2059       C  0.26738144  0.24039886  0.53160107    -0.16600
C2060       C  0.25455531  0.24469381  0.52839522    -0.14600
H2061       H  0.23230845  0.25198024  0.51320440     0.20800
H2062       H  0.27479118  0.24119210  0.48830259     0.16800
H2063       H  0.26024292  0.24547176  0.46583620     0.19300
H2064       H  0.24657543  0.24645026  0.53564070     0.12700
C2065       C  0.50552281  0.43299534  0.51892809     0.16600
C2066       C  0.49533394  0.44251817  0.51670062    -0.32500
C2067       C  0.49823589  0.45342999  0.50819305     0.20900
C2068       C  0.51068389  0.45470365  0.50205317     0.03100
C2069       C  0.52094789  0.44531914  0.50447623    -0.22200
C2070       C  0.51810171  0.43450796  0.51311945     0.12300
S2071       S  0.50386109  0.41879932  0.52850778    -0.05900
C2072       C  0.52039010  0.41503084  0.52494850    -0.09300
C2073       C  0.52674060  0.42432392  0.51669408    -0.25900
S2074       S  0.51201612  0.46828464  0.49159184    -0.03100
C2075       C  0.49570447  0.47250595  0.49571295    -0.16600
C2076       C  0.48964089  0.46369426  0.50471123    -0.14600
H2077       H  0.48553982  0.44141152  0.52131387     0.20800
H2078       H  0.53070195  0.44635418  0.49976052     0.16800
H2079       H  0.53703015  0.42350200  0.51325292     0.19300
H2080       H  0.47941853  0.46461544  0.50833209     0.12700
C2081       C  0.51500537  0.11103832  0.51434794     0.16600
C2082       C  0.52576922  0.10257948  0.51068524    -0.32500
C2083       C  0.52279883  0.08951875  0.50594013     0.20900
C2084       C  0.50966373  0.08513551  0.50475518     0.03100
C2085       C  0.49890206  0.09350791  0.50866734    -0.22200
C2086       C  0.50188736  0.10654239  0.51351145     0.12300
S2087       S  0.51652483  0.12735242  0.51990216    -0.05900
C2088       C  0.49929906  0.12814967  0.52134771    -0.09300
C2089       C  0.49282751  0.11627481  0.51761650    -0.25900
S2090       S  0.50813199  0.06934959  0.49779694    -0.03100
C2091       C  0.52537318  0.06850565  0.49674737    -0.16600
C2092       C  0.53187549  0.07992945  0.50155472    -0.14600
H2093       H  0.53601390  0.10609142  0.51134687     0.20800
H2094       H  0.48864574  0.09008711  0.50777395     0.16800
H2095       H  0.48207280  0.11487867  0.51772116     0.19300
H2096       H  0.54262867  0.08135945  0.50131769     0.12700
C2097       C  0.38781681  0.18445034  0.57148576     0.16600
C2098       C  0.37374997  0.18439360  0.57158086    -0.32500
C2099       C  0.36713460  0.19370484  0.58010091     0.20900
C2100       C  0.37415872  0.20241315  0.58845983     0.03100
C2101       C  0.38820417  0.20241689  0.58841442    -0.22200
C2102       C  0.39480803  0.19339183  0.57962189     0.12300
S2103       S  0.39780036  0.17470156  0.56115599    -0.05900
C2104       C  0.41148955  0.18308614  0.56759317    -0.09300
C2105       C  0.40834135  0.19265086  0.57742920    -0.25900
S2106       S  0.36427546  0.21333952  0.59760093    -0.03100
C2107       C  0.35053575  0.20642254  0.58975003    -0.16600
C2108       C  0.35359057  0.19596944  0.58080150    -0.14600
H2109       H  0.36820670  0.17771661  0.56497321     0.20800
H2110       H  0.39374892  0.20946985  0.59462403     0.16800
H2111       H  0.41556865  0.19903788  0.58247754     0.19300
H2112       H  0.34630501  0.19061060  0.57475549     0.12700
C2113       C  0.51291753  0.25861218  0.54240158     0.16600
C2114       C  0.52257434  0.26884702  0.54309986    -0.32500
C2115       C  0.51805470  0.28228240  0.54319075     0.20900
C2116       C  0.50455219  0.28545101  0.54230001     0.03100
C2117       C  0.49487728  0.27520820  0.54167951    -0.22200
C2118       C  0.49938592  0.26175792  0.54190730     0.12300
S2119       S  0.51633326  0.24167085  0.54248463    -0.05900
C2120       C  0.49933634  0.23878702  0.54220491    -0.09300
C2121       C  0.49153918  0.25041570  0.54190149    -0.25900
S2122       S  0.50118092  0.30241393  0.54256178    -0.03100
C2123       C  0.51810845  0.30521921  0.54433548    -0.16600
C2124       C  0.52586356  0.29357317  0.54442803    -0.14600
H2125       H  0.53313905  0.26644379  0.54375661     0.20800
H2126       H  0.48429923  0.27761004  0.54124974     0.16800
H2127       H  0.48069313  0.25057048  0.54171369     0.19300
H2128       H  0.53665567  0.29335919  0.54546156     0.12700
C2129       C  0.01425085  0.43388312  0.50003153     0.16600
C2130       C  0.02449029  0.44307853  0.50318763    -0.32500
C2131       C  0.02084492  0.45517827  0.50975441     0.20900
C2132       C  0.00758939  0.45796811  0.51303067     0.03100
C2133       C  0.99732390  0.44894520  0.50954227    -0.22200
C2134       C  0.00096909  0.43684605  0.50300674     0.12300
S2135       S  0.01666809  0.41830557  0.49286121    -0.05900
C2136       C  0.99958290  0.41578258  0.49373624    -0.09300
C2137       C  0.99248865  0.42656943  0.49928278    -0.25900
S2138       S  0.00531355  0.47265143  0.52191993    -0.03100
C2139       C  0.02236985  0.47522243  0.52104902    -0.16600
C2140       C  0.02937047  0.46517196  0.51414282    -0.14600
H2141       H  0.03487035  0.44076617  0.50089966     0.20800
H2142       H  0.98697593  0.45111266  0.51211097     0.16800
H2143       H  0.98173947  0.42676760  0.50081325     0.19300
H2144       H  0.04014886  0.46496248  0.51282440     0.12700
C2145       C  0.01275879  0.08872834  0.51282620     0.16600
C2146       C  0.02339494  0.09716436  0.50896331    -0.32500
C2147       C  0.02018074  0.10951388  0.50287481     0.20900
C2148       C  0.00696436  0.11335440  0.50094012     0.03100
C2149       C  0.99636265  0.10482787  0.50456681    -0.22200
C2150       C  0.99957497  0.09240627  0.51043082     0.12300
S2151       S  0.01447545  0.07350746  0.52067082    -0.05900
C2152       C  0.99728327  0.07193480  0.52033292    -0.09300
C2153       C  0.99065624  0.08272120  0.51454236    -0.25900
S2154       S  0.00506826  0.12891670  0.49395009    -0.03100
C2155       C  0.02227459  0.13020358  0.49327421    -0.16600
C2156       C  0.02905217  0.11910134  0.49833559    -0.14600
H2157       H  0.03370337  0.09425278  0.51066763     0.20800
H2158       H  0.98605115  0.10776563  0.50291366     0.16800
H2159       H  0.97987942  0.08352462  0.51360620     0.19300
H2160       H  0.03984816  0.11817762  0.49883008     0.12700
C2161       C  0.11959216  0.18788680  0.41780867     0.16600
C2162       C  0.12877517  0.19452445  0.40939908    -0.32500
C2163       C  0.14212273  0.19530805  0.41366257     0.20900
C2164       C  0.14618002  0.18941530  0.42560317     0.03100
C2165       C  0.13713302  0.18222406  0.43367936    -0.22200
C2166       C  0.12372478  0.18175176  0.42959865     0.12300
S2167       S  0.10264442  0.18813975  0.41573489    -0.05900
C2168       C  0.10110467  0.17991856  0.43090855    -0.09300
C2169       C  0.11315857  0.17687852  0.43702303    -0.25900
S2170       S  0.16216002  0.19327593  0.43014469    -0.03100
C2171       C  0.16340826  0.20299753  0.41585522    -0.16600
C2172       C  0.15209974  0.20288869  0.40784335    -0.14600
H2173       H  0.12547828  0.19966633  0.40041823     0.20800
H2174       H  0.14021961  0.17799763  0.44319865     0.16800
H2175       H  0.11407282  0.17246391  0.44692296     0.19300
H2176       H  0.15085226  0.20895525  0.39890457     0.12700
C2177       C  0.00796724  0.25948816  0.47475018     0.16600
C2178       C  0.99858454  0.27000205  0.47572496    -0.32500
C2179       C  0.00329125  0.28325648  0.47415016     0.20900
C2180       C  0.01677814  0.28599976  0.47213441     0.03100
C2181       C  0.02614976  0.27548871  0.47114561    -0.22200
C2182       C  0.02138564  0.26221945  0.47230147     0.12300
S2183       S  0.00422578  0.24265643  0.47562153    -0.05900
C2184       C  0.02083675  0.23930636  0.47216794    -0.09300
C2185       C  0.02879889  0.25067800  0.47075850    -0.25900
S2186       S  0.02042303  0.30276975  0.47033163    -0.03100
C2187       C  0.00354233  0.30604380  0.47182971    -0.16600
C2188       C  0.99563780  0.29472740  0.47389206    -0.14600
H2189       H  0.98803736  0.26792788  0.47728022     0.20800
H2190       H  0.03664036  0.27754124  0.46920828     0.16800
H2191       H  0.03942871  0.25051905  0.46849937     0.19300
H2192       H  0.98483096  0.29487565  0.47495945     0.12700
C2193       C  0.77272620  0.26837714  0.33939675     0.16600
C2194       C  0.77168802  0.26111025  0.32721297    -0.32500
C2195       C  0.75884536  0.25944385  0.32167901     0.20900
C2196       C  0.74759838  0.26494212  0.32792259     0.03100
C2197       C  0.74860571  0.27194890  0.34019802    -0.22200
C2198       C  0.76138439  0.27345772  0.34580064     0.12300
S2199       S  0.78735785  0.27184249  0.34766981    -0.05900
C2200       C  0.77802733  0.27990028  0.36004335    -0.09300
C2201       C  0.76434128  0.27992457  0.35768527    -0.25900
S2202       S  0.73305007  0.26260654  0.31927820    -0.03100
C2203       C  0.74208431  0.25384177  0.30720362    -0.16600
C2204       C  0.75570651  0.25285959  0.30984519    -0.14600
H2205       H  0.78050167  0.25702244  0.32222472     0.20800
H2206       H  0.73980473  0.27614430  0.34512457     0.16800
H2207       H  0.75693010  0.28455266  0.36427641     0.19300
H2208       H  0.76295771  0.24796313  0.30326666     0.12700
C2209       C  0.88048079  0.34295101  0.42038910     0.16600
C2210       C  0.89409566  0.34636748  0.41957602    -0.32500
C2211       C  0.89987679  0.35273980  0.43081433     0.20900
C2212       C  0.89237553  0.35601869  0.44218708     0.03100
C2213       C  0.87875933  0.35267786  0.44296473    -0.22200
C2214       C  0.87309707  0.34591138  0.43191081     0.12300
S2215       S  0.87181664  0.33410202  0.40836773    -0.05900
C2216       C  0.85826330  0.33399353  0.41920109    -0.09300
C2217       C  0.86038373  0.34083351  0.43126988    -0.25900
S2218       S  0.90142380  0.36305857  0.45502411    -0.03100
C2219       C  0.91553197  0.36110156  0.44514412    -0.16600
C2220       C  0.91318519  0.35559666  0.43248897    -0.14600
H2221       H  0.90005033  0.34368472  0.41079714     0.20800
H2222       H  0.87296073  0.35477197  0.45200127     0.16800
H2223       H  0.85313323  0.34169735  0.43939002     0.19300
H2224       H  0.92092847  0.35322105  0.42514707     0.12700
C2225       C  0.74785377  0.26493040  0.66547029     0.16600
C2226       C  0.74770453  0.25866235  0.67811578    -0.32500
C2227       C  0.76007588  0.25613007  0.68428646     0.20900
C2228       C  0.77205144  0.25984480  0.67820862     0.03100
C2229       C  0.77221069  0.26589593  0.66546171    -0.22200
C2230       C  0.75985167  0.26827368  0.65922280     0.12300
S2231       S  0.73393118  0.26923100  0.65651182    -0.05900
C2232       C  0.74437366  0.27532285  0.64405463    -0.09300
C2233       C  0.75792492  0.27410874  0.64686893    -0.25900
S2234       S  0.78591911  0.25670017  0.68770460    -0.03100
C2235       C  0.77552893  0.25004473  0.69991716    -0.16600
C2236       C  0.76201870  0.25032548  0.69666680    -0.14600
H2237       H  0.73834917  0.25598595  0.68298539     0.20800
H2238       H  0.78155639  0.26874533  0.66067321     0.16800
H2239       H  0.76593982  0.27752789  0.64033567     0.19300
H2240       H  0.75401640  0.24688704  0.70320853     0.12700
C2241       C  0.64359820  0.33993871  0.59102902     0.16600
C2242       C  0.62958236  0.34011445  0.59128260    -0.32500
C2243       C  0.62305829  0.34889569  0.58245107     0.20900
C2244       C  0.63009691  0.35741474  0.57394654     0.03100
C2245       C  0.64415645  0.35731382  0.57376059    -0.22200
C2246       C  0.65069438  0.34826562  0.58237690     0.12300
S2247       S  0.65332163  0.32925239  0.60023737    -0.05900
C2248       C  0.66711444  0.33578240  0.59208469    -0.09300
C2249       C  0.66420982  0.34594418  0.58296977    -0.25900
S2250       S  0.62015296  0.36694795  0.56368086    -0.03100
C2251       C  0.60642854  0.35907925  0.57073504    -0.16600
C2252       C  0.60953499  0.34980986  0.58065235    -0.14600
H2253       H  0.62399133  0.33339127  0.59778260     0.20800
H2254       H  0.64974148  0.36369237  0.56691991     0.16800
H2255       H  0.67154869  0.35107141  0.57677323     0.19300
H2256       H  0.60227598  0.34379828  0.58610361     0.12700
C2257       C  0.74921846  0.29691441  0.50983743     0.16600
C2258       C  0.74857920  0.29787231  0.49575133    -0.32500
C2259       C  0.76032015  0.29516460  0.48834710     0.20900
C2260       C  0.77210806  0.29157503  0.49473692     0.03100
C2261       C  0.77264369  0.29025456  0.50876934    -0.22200
C2262       C  0.76095391  0.29306157  0.51616782     0.12300
S2263       S  0.73649228  0.30105975  0.52064919    -0.05900
C2264       C  0.74707456  0.29754943  0.53384860    -0.09300
C2265       C  0.75972973  0.29319787  0.52995682    -0.25900
S2266       S  0.78555105  0.28987160  0.48422576    -0.03100
C2267       C  0.77523390  0.29392584  0.47099265    -0.16600
C2268       C  0.76199995  0.29634474  0.47463453    -0.14600
H2269       H  0.73946302  0.30103091  0.49082401     0.20800
H2270       H  0.78189927  0.28760620  0.51373566     0.16800
H2271       H  0.76777945  0.29088529  0.53682808     0.19300
H2272       H  0.75421908  0.29940845  0.46774587     0.12700
C2273       C  0.51343095  0.00882592  0.42413820     0.16600
C2274       C  0.51983506  0.00868343  0.43668309    -0.32500
C2275       C  0.52236924  0.02116351  0.44300063     0.20900
C2276       C  0.51851402  0.03325318  0.43718511     0.03100
C2277       C  0.51240525  0.03341355  0.42448352    -0.22200
C2278       C  0.51003800  0.02093327  0.41808321     0.12300
S2279       S  0.50908665  0.99476085  0.41505019    -0.05900
C2280       C  0.50298810  0.00528581  0.40275268    -0.09300
C2281       C  0.50419875  0.01896823  0.40572820    -0.25900
S2282       S  0.52163645  0.04723040  0.44691701    -0.03100
C2283       C  0.52850814  0.03670416  0.45880304    -0.16600
C2284       C  0.52833148  0.02310332  0.45529807    -0.14600
H2285       H  0.52260968  0.99924738  0.44137525     0.20800
H2286       H  0.50950189  0.04284220  0.41985493     0.16800
H2287       H  0.50082385  0.02704447  0.39927070     0.19300
H2288       H  0.53201019  0.01503735  0.46160226     0.12700
C2289       C  0.52116862  0.00463853  0.08251162     0.16600
C2290       C  0.51450225  0.00531532  0.09498935    -0.32500
C2291       C  0.51351328  0.01798929  0.10138797     0.20900
C2292       C  0.51882484  0.02951795  0.09557277     0.03100
C2293       C  0.52582158  0.02877888  0.08325952    -0.22200
C2294       C  0.52690277  0.01607033  0.07690777     0.12300
S2295       S  0.52281416  0.99034860  0.07284283    -0.05900
C2296       C  0.53161788  0.99976328  0.06125217    -0.09300
C2297       C  0.53310355  0.01328880  0.06479007    -0.25900
S2298       S  0.51573450  0.04406116  0.10452540    -0.03100
C2299       C  0.50744209  0.03447111  0.11637157    -0.16600
C2300       C  0.50716835  0.02073631  0.11342343    -0.14600
H2301       H  0.51009458  0.99638260  0.09942107     0.20800
H2302       H  0.53005724  0.03774568  0.07873031     0.16800
H2303       H  0.53819222  0.02073657  0.05867795     0.19300
H2304       H  0.50227755  0.01320445  0.11959285     0.12700
C2305       C  0.49152268  0.02657346  0.27279820     0.16600
C2306       C  0.49224848  0.03658944  0.26287161    -0.32500
C2307       C  0.49190598  0.03236479  0.24932511     0.20900
C2308       C  0.49124854  0.01878600  0.24581695     0.03100
C2309       C  0.49049692  0.00881748  0.25571369    -0.22200
C2310       C  0.49048041  0.01304585  0.26921358     0.12300
S2311       S  0.49119688  0.02948778  0.28983067    -0.05900
C2312       C  0.48923697  0.01232773  0.29204735    -0.09300
C2313       C  0.48910776  0.00487005  0.28017374    -0.25900
S2314       S  0.49073137  0.01568611  0.22888825    -0.03100
C2315       C  0.49095159  0.03288153  0.22645710    -0.16600
C2316       C  0.49167401  0.04052581  0.23822424    -0.14600
H2317       H  0.49274504  0.04720127  0.26557803     0.20800
H2318       H  0.48965054  0.99822811  0.25300569     0.16800
H2319       H  0.48792063  0.99400375  0.27956117     0.19300
H2320       H  0.49176102  0.05146801  0.23864330     0.12700
C2321       C  0.66743976  0.26894370  0.25126658     0.16600
C2322       C  0.67690403  0.25857579  0.25279265    -0.32500
C2323       C  0.68787889  0.26108679  0.26120239     0.20900
C2324       C  0.68929789  0.27333705  0.26791826     0.03100
C2325       C  0.67995430  0.28381127  0.26619638    -0.22200
C2326       C  0.66905183  0.28135050  0.25764885     0.12300
S2327       S  0.65318627  0.26765893  0.24193392    -0.05900
C2328       C  0.64950769  0.28413604  0.24633992    -0.09300
C2329       C  0.65885605  0.29019637  0.25471263    -0.25900
S2330       S  0.70296138  0.27411129  0.27818363    -0.03100
C2331       C  0.70695123  0.25783044  0.27321020    -0.16600
C2332       C  0.69805001  0.25220992  0.26407191    -0.14600
H2333       H  0.67569526  0.24891746  0.24774171     0.20800
H2334       H  0.68107847  0.29341353  0.27137176     0.16800
H2335       H  0.65805783  0.30039153  0.25869071     0.19300
H2336       H  0.69883124  0.24206995  0.25994645     0.12700
C2337       C  0.34626105  0.25775870  0.25375954     0.16600
C2338       C  0.33317258  0.25762026  0.25905307    -0.32500
C2339       C  0.32725732  0.27008873  0.26249708     0.20900
C2340       C  0.33400785  0.28217105  0.26055932     0.03100
C2341       C  0.34720485  0.28228396  0.25556366    -0.22200
C2342       C  0.35317798  0.26980699  0.25228615     0.12300
S2343       S  0.35502049  0.24377923  0.24852137    -0.05900
C2344       C  0.36828990  0.25421823  0.24461341    -0.09300
C2345       C  0.36588075  0.26782719  0.24720209    -0.25900
S2346       S  0.32479558  0.29625543  0.26454572    -0.03100
C2347       C  0.31182976  0.28576908  0.26922335    -0.16600
C2348       C  0.31458876  0.27208403  0.26769207    -0.14600
H2349       H  0.32779229  0.24821458  0.26031890     0.20800
H2350       H  0.35253650  0.29169859  0.25416382     0.16800
H2351       H  0.37295338  0.27587487  0.24523955     0.19300
H2352       H  0.30758043  0.26405685  0.26995654     0.12700
C2353       C  0.43865796  0.16129988  0.17232431     0.16600
C2354       C  0.44691384  0.15190337  0.16560140    -0.32500
C2355       C  0.44561078  0.13825037  0.16908444     0.20900
C2356       C  0.43639884  0.13416948  0.17875255     0.03100
C2357       C  0.42790947  0.14351791  0.18521265    -0.22200
C2358       C  0.42931326  0.15717483  0.18183714     0.12300
S2359       S  0.43974208  0.17839090  0.17060314    -0.05900
C2360       C  0.42753145  0.18004311  0.18289333    -0.09300
C2361       C  0.42274603  0.16788173  0.18780963    -0.25900
S2362       S  0.43722312  0.11743452  0.18256470    -0.03100
C2363       C  0.45007761  0.11583937  0.17097550    -0.16600
C2364       C  0.45338334  0.12770324  0.16441017    -0.14600
H2365       H  0.45437755  0.15515426  0.15836025     0.20800
H2366       H  0.42089267  0.14034594  0.19292508     0.16800
H2367       H  0.41545832  0.16693069  0.19587092     0.19300
H2368       H  0.46150894  0.12870454  0.15720785     0.12700
C2369       C  0.50249467  0.26118405  0.22768780     0.16600
C2370       C  0.51649620  0.26135306  0.22669863    -0.32500
C2371       C  0.52340915  0.27026608  0.23518466     0.20900
C2372       C  0.51668516  0.27865359  0.24423234     0.03100
C2373       C  0.50269648  0.27833046  0.24536391    -0.22200
C2374       C  0.49578061  0.26942410  0.23687236     0.12300
S2375       S  0.49227989  0.25143501  0.21798256    -0.05900
C2376       C  0.47879188  0.25843771  0.22646703    -0.09300
C2377       C  0.48216297  0.26785379  0.23626279    -0.25900
S2378       S  0.52678541  0.28950235  0.25286151    -0.03100
C2379       C  0.54021503  0.28265565  0.24419817    -0.16600
C2380       C  0.53696167  0.27237572  0.23526524    -0.14600
H2381       H  0.52175215  0.25499387  0.21946938     0.20800
H2382       H  0.49741915  0.28492715  0.25236129     0.16800
H2383       H  0.47505733  0.27334829  0.24252070     0.19300
H2384       H  0.54402241  0.26725002  0.22864882     0.12700
C2385       C  0.34239302  0.78890976  0.26044451     0.16600
C2386       C  0.32975923  0.78894732  0.25418916    -0.32500
C2387       C  0.32396464  0.77637099  0.25091861     0.20900
C2388       C  0.33032527  0.76435396  0.25412801     0.03100
C2389       C  0.34294702  0.76432829  0.26024929    -0.22200
C2390       C  0.34888614  0.77684295  0.26315380     0.12300
S2391       S  0.35133518  0.80298520  0.26501138    -0.05900
C2392       C  0.36412813  0.79246887  0.27015324    -0.09300
C2393       C  0.36135340  0.77881307  0.26859973    -0.25900
S2394       S  0.32159614  0.75015784  0.24984284    -0.03100
C2395       C  0.30934050  0.76038464  0.24321625    -0.16600
C2396       C  0.31194152  0.77415586  0.24446686    -0.14600
H2397       H  0.32475270  0.79834779  0.25183646     0.20800
H2398       H  0.34799802  0.75492753  0.26251922     0.16800
H2399       H  0.36812163  0.77072193  0.27130069     0.19300
H2400       H  0.30531072  0.78207927  0.24105382     0.12700
C2401       C  0.43092963  0.88437807  0.34387906     0.16600
C2402       C  0.43858517  0.89372406  0.35121287    -0.32500
C2403       C  0.43781894  0.90735609  0.34748485     0.20900
C2404       C  0.42954213  0.91150721  0.33713038     0.03100
C2405       C  0.42144968  0.90225206  0.33020583    -0.22200
C2406       C  0.42246182  0.88859244  0.33370759     0.12300
S2407       S  0.43233760  0.86724525  0.34517229    -0.05900
C2408       C  0.42150196  0.86575494  0.33179767    -0.09300
C2409       C  0.41677275  0.87793921  0.32693903    -0.25900
S2410       S  0.43133862  0.92806765  0.33287681    -0.03100
C2411       C  0.44338010  0.92946759  0.34516706    -0.16600
C2412       C  0.44562357  0.91771140  0.35232809    -0.14600
H2413       H  0.44547159  0.89040847  0.35889645     0.20800
H2414       H  0.41527809  0.90544128  0.32188139     0.16800
H2415       H  0.41049330  0.87896555  0.31815334     0.19300
H2416       H  0.45318905  0.91657077  0.36000253     0.12700
C2417       C  0.66450563  0.77641553  0.26354191     0.16600
C2418       C  0.67379192  0.78682400  0.26121661    -0.32500
C2419       C  0.68523504  0.78370665  0.25345835     0.20900
C2420       C  0.68716675  0.77087017  0.24806013     0.03100
C2421       C  0.67802540  0.76043752  0.25058055    -0.22200
C2422       C  0.66675026  0.76347502  0.25853571     0.12300
S2423       S  0.64984741  0.77812442  0.27241833    -0.05900
C2424       C  0.64697508  0.76113108  0.26971875    -0.09300
C2425       C  0.65682075  0.75462629  0.26219235    -0.25900
S2426       S  0.70123316  0.76921912  0.23834607    -0.03100
C2427       C  0.70482638  0.78590693  0.24182060    -0.16600
C2428       C  0.69547349  0.79236936  0.25006234    -0.14600
H2429       H  0.67215048  0.79690196  0.26523892     0.20800
H2430       H  0.67962156  0.75038073  0.24648277     0.16800
H2431       H  0.65660289  0.74403562  0.25935342     0.19300
H2432       H  0.69598737  0.80288239  0.25313647     0.12700
C2433       C  0.49921863  0.78522156  0.27694494     0.16600
C2434       C  0.51326987  0.78549272  0.27671344    -0.32500
C2435       C  0.52004562  0.77306309  0.27660129     0.20900
C2436       C  0.51311470  0.76092041  0.27654435     0.03100
C2437       C  0.49907367  0.76064919  0.27639137    -0.22200
C2438       C  0.49229584  0.77307153  0.27665517     0.12300
S2439       S  0.48923385  0.79912626  0.27876922    -0.05900
C2440       C  0.47558075  0.78847565  0.27912672    -0.09300
C2441       C  0.47868157  0.77489012  0.27764892    -0.25900
S2442       S  0.52307194  0.74696890  0.27753693    -0.03100
C2443       C  0.53676767  0.75756774  0.27803370    -0.16600
C2444       C  0.53366168  0.77120556  0.27730234    -0.14600
H2445       H  0.51867629  0.79496671  0.27714889     0.20800
H2446       H  0.49366935  0.75116748  0.27657354     0.16800
H2447       H  0.47145244  0.76675573  0.27817982     0.19300
H2448       H  0.54090266  0.77932814  0.27780895     0.12700
C2449       C  0.51054007  0.51840866  0.09570590     0.16600
C2450       C  0.50771776  0.52884051  0.08667214    -0.32500
C2451       C  0.50042563  0.52558563  0.07507518     0.20900
C2452       C  0.49601544  0.51252192  0.07260862     0.03100
C2453       C  0.49905952  0.50199494  0.08154507    -0.22200
C2454       C  0.50648130  0.50524378  0.09312186     0.12300
S2455       S  0.51854401  0.52057308  0.11069178    -0.05900
C2456       C  0.51662727  0.50352916  0.11352475    -0.09300
C2457       C  0.51015511  0.49657478  0.10324934    -0.25900
S2458       S  0.48677857  0.51087284  0.05822157    -0.03100
C2459       C  0.48916193  0.52790738  0.05535368    -0.16600
C2460       C  0.49663738  0.53440811  0.06518404    -0.14600
H2461       H  0.51091940  0.53910834  0.08869250     0.20800
H2462       H  0.49565750  0.49177319  0.07964318     0.16800
H2463       H  0.50776469  0.48590388  0.10345551     0.19300
H2464       H  0.49902997  0.54508419  0.06519221     0.12700
C2465       C  0.55172368  0.40055385  0.19708507     0.16600
C2466       C  0.55292578  0.39028227  0.20653192    -0.32500
C2467       C  0.56546894  0.38423747  0.20798449     0.20900
C2468       C  0.57644576  0.38807745  0.20032506     0.03100
C2469       C  0.57525647  0.39848993  0.19077823    -0.22200
C2470       C  0.56258960  0.40465612  0.18935407     0.12300
S2471       S  0.53741577  0.40946004  0.19465979    -0.05900
C2472       C  0.54601431  0.41914389  0.18319551    -0.09300
C2473       C  0.55930461  0.41534295  0.18115131    -0.25900
S2474       S  0.59067275  0.37890975  0.20365863    -0.03100
C2475       C  0.58155194  0.36988758  0.21541440    -0.16600
C2476       C  0.56833416  0.37404108  0.21665200    -0.14600
H2477       H  0.54442889  0.38720546  0.21261960     0.20800
H2478       H  0.58378943  0.40167710  0.18481499     0.16800
H2479       H  0.56632203  0.42058762  0.17468347     0.19300
H2480       H  0.56095497  0.36965750  0.22333834     0.12700
C2481       C  0.50261749  0.53399745  0.42328549     0.16600
C2482       C  0.49601541  0.53386834  0.43583992    -0.32500
C2483       C  0.49646291  0.52187315  0.44334228     0.20900
C2484       C  0.50342572  0.51062198  0.43866412     0.03100
C2485       C  0.50985977  0.51069062  0.42604670    -0.22200
C2486       C  0.50916308  0.52256953  0.41842587     0.12300
S2487       S  0.50340330  0.54756028  0.41269939    -0.05900
C2488       C  0.51230571  0.53761192  0.40143750    -0.09300
C2489       C  0.51457853  0.52452252  0.40582421    -0.25900
S2490       S  0.50310543  0.49718426  0.44937515    -0.03100
C2491       C  0.49311759  0.50661392  0.46014974    -0.16600
C2492       C  0.49041159  0.51959524  0.45562295    -0.14600
H2493       H  0.49071782  0.54270852  0.43956759     0.20800
H2494       H  0.51512559  0.50183752  0.42230176     0.16800
H2495       H  0.52007894  0.51690267  0.40017253     0.19300
H2496       H  0.48437504  0.52697083  0.46103715     0.12700
C2497       C  0.56919042  0.63938880  0.33838820     0.16600
C2498       C  0.57029178  0.65350833  0.33801025    -0.32500
C2499       C  0.57974358  0.65905567  0.32909506     0.20900
C2500       C  0.58800193  0.65096102  0.32114916     0.03100
C2501       C  0.58688757  0.63684478  0.32152140    -0.22200
C2502       C  0.57720081  0.63130592  0.33018118     0.12300
S2503       S  0.55781843  0.63065236  0.34792123    -0.05900
C2504       C  0.56365370  0.61599130  0.34044540    -0.09300
C2505       C  0.57404253  0.61790047  0.33129610    -0.25900
S2506       S  0.59841939  0.65971764  0.31058111    -0.03100
C2507       C  0.59126769  0.67440303  0.31665515    -0.16600
C2508       C  0.58154469  0.67249907  0.32650970    -0.14600
H2509       H  0.56379973  0.65989969  0.34409761     0.20800
H2510       H  0.59301904  0.63046943  0.31505085     0.16800
H2511       H  0.57886461  0.60991301  0.32552758     0.19300
H2512       H  0.57569015  0.68053946  0.33112453     0.12700
C2513       C  0.52119626  0.51363536  0.27143251     0.16600
C2514       C  0.51686452  0.50431462  0.26166355    -0.32500
C2515       C  0.51805743  0.50801150  0.24806443     0.20900
C2516       C  0.52324004  0.52044241  0.24435429     0.03100
C2517       C  0.52762124  0.52970782  0.25409985    -0.22200
C2518       C  0.52651743  0.52598458  0.26766324     0.12300
S2519       S  0.52055669  0.51123360  0.28849092    -0.05900
C2520       C  0.52764561  0.52700411  0.29053017    -0.09300
C2521       C  0.53028561  0.53363554  0.27853005    -0.25900
S2522       S  0.52399024  0.52297573  0.22736457    -0.03100
C2523       C  0.51745496  0.50701157  0.22515084    -0.16600
C2524       C  0.51470664  0.50026180  0.23708416    -0.14600
H2525       H  0.51279503  0.49460133  0.26452575     0.20800
H2526       H  0.53177427  0.53938533  0.25123310     0.16800
H2527       H  0.53460641  0.54362898  0.27773892     0.19300
H2528       H  0.51068310  0.49012941  0.23772456     0.12700
C2529       C  0.25013722  0.35902831  0.76120715     0.16600
C2530       C  0.24223012  0.34723780  0.76098213    -0.32500
C2531       C  0.24101714  0.34021688  0.74864498     0.20900
C2532       C  0.24746890  0.34473251  0.73711947     0.03100
C2533       C  0.25504770  0.35666194  0.73727245    -0.22200
C2534       C  0.25619800  0.36368888  0.74953668     0.12300
S2535       S  0.25358348  0.36864494  0.77521948    -0.05900
C2536       C  0.26307873  0.37916254  0.76516286    -0.09300
C2537       C  0.26343661  0.37529305  0.75169723    -0.25900
S2538       S  0.24560176  0.33443260  0.72338344    -0.03100
C2539       C  0.23574933  0.32396335  0.73307827    -0.16600
C2540       C  0.23408504  0.32836657  0.74633657    -0.14600
H2541       H  0.23743461  0.34357647  0.77005676     0.20800
H2542       H  0.26004230  0.36019253  0.72824980     0.16800
H2543       H  0.26900583  0.38051126  0.74392293     0.19300
H2544       H  0.22843385  0.32299911  0.75394629     0.12700
C2545       C  0.26131449  0.68251230  0.76068711     0.16600
C2546       C  0.25804003  0.69173351  0.77101908    -0.32500
C2547       C  0.25189199  0.70395507  0.76740498     0.20900
C2548       C  0.24893140  0.70681036  0.75410680     0.03100
C2549       C  0.25242852  0.69767759  0.74372905    -0.22200
C2550       C  0.25876487  0.68551659  0.74733189     0.12300
S2551       S  0.26858842  0.66704712  0.76304872    -0.05900
C2552       C  0.26858097  0.66467637  0.74582093    -0.09300
C2553       C  0.26304025  0.67537363  0.73873690    -0.25900
S2554       S  0.24072137  0.72187593  0.75197248    -0.03100
C2555       C  0.24153168  0.72448306  0.76915827    -0.16600
C2556       C  0.24785700  0.71411834  0.77603779    -0.14600
H2557       H  0.26013321  0.68944794  0.78144255     0.20800
H2558       H  0.25024042  0.69991670  0.73331696     0.16800
H2559       H  0.26208257  0.67566353  0.72788905     0.19300
H2560       H  0.24910030  0.71385199  0.78685888     0.12700
C2561       C  0.28719507  0.53276799  0.75494287     0.16600
C2562       C  0.28666191  0.52168409  0.76364160    -0.32500
C2563       C  0.28848739  0.50875088  0.75800175     0.20900
C2564       C  0.29022858  0.50683316  0.74424958     0.03100
C2565       C  0.29072852  0.51791879  0.73554378    -0.22200
C2566       C  0.28941511  0.53088894  0.74125749     0.12300
S2567       S  0.28622734  0.54935035  0.75991257    -0.05900
C2568       C  0.28937386  0.55379694  0.74346107    -0.09300
C2569       C  0.29071998  0.54291398  0.73463790    -0.25900
S2570       S  0.29257832  0.49032398  0.73947940    -0.03100
C2571       C  0.29174548  0.48608159  0.75624117    -0.16600
C2572       C  0.28945370  0.49688178  0.76493274    -0.14600
H2573       H  0.28536108  0.52310747  0.77439456     0.20800
H2574       H  0.29252767  0.51652648  0.72485631     0.16800
H2575       H  0.29284690  0.54374327  0.72396887     0.19300
H2576       H  0.28883790  0.49610718  0.77579394     0.12700
C2577       C  0.09157503  0.52633808  0.49418878     0.16600
C2578       C  0.07921629  0.51948870  0.49409072    -0.32500
C2579       C  0.07299084  0.51688395  0.50657632     0.20900
C2580       C  0.07873471  0.52112752  0.51855908     0.03100
C2581       C  0.09116942  0.52770144  0.51866085    -0.22200
C2582       C  0.09747227  0.53010683  0.50624349     0.12300
S2583       S  0.10068019  0.53079686  0.48020955    -0.05900
C2584       C  0.11269902  0.53746233  0.49077031    -0.09300
C2585       C  0.10962797  0.53631232  0.50435663    -0.25900
S2586       S  0.06941096  0.51768397  0.53259585    -0.03100
C2587       C  0.05773500  0.51007147  0.52235020    -0.16600
C2588       C  0.06098477  0.51033428  0.50870456    -0.14600
H2589       H  0.07464069  0.51637948  0.48471320     0.20800
H2590       H  0.09571845  0.53086429  0.52803655     0.16800
H2591       H  0.11589671  0.53998725  0.51245043     0.19300
H2592       H  0.05479548  0.50617381  0.50078147     0.12700
C2593       C  0.41805375  0.52793283  0.50344590     0.16600
C2594       C  0.42796085  0.52527517  0.49367433    -0.32500
C2595       C  0.43903164  0.51741838  0.49744011     0.20900
C2596       C  0.44009004  0.51220654  0.51031017     0.03100
C2597       C  0.43026532  0.51503904  0.52017036    -0.22200
C2598       C  0.41930147  0.52313827  0.51646583     0.12300
S2599       S  0.40377778  0.53706806  0.50074410    -0.05900
C2600       C  0.39957048  0.53480492  0.51743168    -0.09300
C2601       C  0.40879394  0.52722022  0.52460933    -0.25900
S2602       S  0.45410046  0.50250014  0.51266386    -0.03100
C2603       C  0.45876759  0.50579148  0.49623061    -0.16600
C2604       C  0.44975372  0.51389708  0.48937853    -0.14600
H2605       H  0.42707731  0.52917442  0.48355861     0.20800
H2606       H  0.43114160  0.51112623  0.53028011     0.16800
H2607       H  0.40775408  0.52466726  0.53514874     0.19300
H2608       H  0.45091335  0.51694934  0.47898519     0.12700
C2609       C  0.34258148  0.59389659  0.62274380     0.16600
C2610       C  0.34347232  0.59453324  0.63682783    -0.32500
C2611       C  0.33368319  0.60205969  0.64383534     0.20900
C2612       C  0.32362806  0.60891208  0.63713673     0.03100
C2613       C  0.32270218  0.60822131  0.62306632    -0.22200
C2614       C  0.33231591  0.60046073  0.61608516     0.12300
S2615       S  0.35305187  0.58475585  0.61241219    -0.05900
C2616       C  0.34324528  0.58949684  0.59903183    -0.09300
C2617       C  0.33263346  0.59795337  0.60250278    -0.25900
S2618       S  0.31262347  0.61733456  0.64749889    -0.03100
C2619       C  0.32144261  0.61125960  0.66102294    -0.16600
C2620       C  0.33242524  0.60330187  0.65754373    -0.14600
H2621       H  0.35127328  0.58915931  0.64211164     0.20800
H2622       H  0.31467380  0.61327398  0.61781062     0.16800
H2623       H  0.32530786  0.60179442  0.59549969     0.19300
H2624       H  0.33899969  0.59846606  0.66468626     0.12700
C2625       C  0.24283734  0.54754831  0.51102623     0.16600
C2626       C  0.25302061  0.54704034  0.52068317    -0.32500
C2627       C  0.26635348  0.54693152  0.51604931     0.20900
C2628       C  0.26944174  0.54695065  0.50241585     0.03100
C2629       C  0.25926561  0.54748894  0.49276688    -0.22200
C2630       C  0.24595080  0.54797116  0.49740783     0.12300
S2631       S  0.22603704  0.54845224  0.51455304    -0.05900
C2632       C  0.22322319  0.54985536  0.49752505    -0.09300
C2633       C  0.23475248  0.54937222  0.48963303    -0.25900
S2634       S  0.28624505  0.54712432  0.49887907    -0.03100
C2635       C  0.28915037  0.54766232  0.51594969    -0.16600
C2636       C  0.27762021  0.54737172  0.52385733    -0.14600
H2637       H  0.25066720  0.54708526  0.53134494     0.20800
H2638       H  0.26163162  0.54787922  0.48211816     0.16800
H2639       H  0.23495127  0.55026007  0.47876999     0.19300
H2640       H  0.27746794  0.54782601  0.53475612     0.12700
C2641       C  0.25711995  0.36125302  0.25705153     0.16600
C2642       C  0.25992657  0.35226356  0.26756101    -0.32500
C2643       C  0.26559242  0.33966603  0.26417632     0.20900
C2644       C  0.26848161  0.33624535  0.25090191     0.03100
C2645       C  0.26535817  0.34510484  0.24035040    -0.22200
C2646       C  0.25955922  0.35765951  0.24373477     0.12300
S2647       S  0.25083282  0.37722052  0.25916340    -0.05900
C2648       C  0.25115398  0.37904430  0.24190191    -0.09300
C2649       C  0.25597313  0.36776284  0.23496607    -0.25900
S2650       S  0.27632335  0.32094477  0.24900214    -0.03100
C2651       C  0.27541435  0.31895288  0.26624193    -0.16600
C2652       C  0.26933789  0.32968788  0.27300487    -0.14600
H2653       H  0.25795851  0.35505388  0.27795315     0.20800
H2654       H  0.26754820  0.34241477  0.22997647     0.16800
H2655       H  0.25705476  0.36709867  0.22412384     0.19300
H2656       H  0.26817822  0.33037336  0.28383971     0.12700
C2657       C  0.26739716  0.68653711  0.26884532     0.16600
C2658       C  0.27459014  0.69870762  0.26834587    -0.32500
C2659       C  0.27347154  0.70657429  0.25669366     0.20900
C2660       C  0.26542638  0.70258394  0.24605697     0.03100
C2661       C  0.25839824  0.69029544  0.24646133    -0.22200
C2662       C  0.25965667  0.68233519  0.25805330     0.12300
S2663       S  0.26712046  0.67578306  0.28224449    -0.05900
C2664       C  0.25673706  0.66531574  0.27311356    -0.09300
C2665       C  0.25365898  0.67005299  0.26037304    -0.25900
S2666       S  0.26508103  0.71379408  0.23302752    -0.03100
C2667       C  0.27609306  0.72387203  0.24188687    -0.16600
C2668       C  0.27970336  0.71870599  0.25431471    -0.14600
H2669       H  0.28074360  0.70193922  0.27671088     0.20800
H2670       H  0.25219407  0.68709769  0.23812239     0.16800
H2671       H  0.24716847  0.66491004  0.25330517     0.19300
H2672       H  0.28645277  0.72361884  0.26129782     0.12700
C2673       C  0.19956237  0.60892204  0.37804455     0.16600
C2674       C  0.19802782  0.60967229  0.39207163    -0.32500
C2675       C  0.18766719  0.60210750  0.39795374     0.20900
C2676       C  0.17900936  0.59436269  0.39024409     0.03100
C2677       C  0.18056705  0.59358565  0.37621891    -0.22200
C2678       C  0.19111579  0.60090813  0.37036521     0.12300
S2679       S  0.21182251  0.61690979  0.36898662    -0.05900
C2680       C  0.20570679  0.60907567  0.35475748    -0.09300
C2681       C  0.19464984  0.60089364  0.35702132    -0.25900
S2682       S  0.16739257  0.58555576  0.39940129    -0.03100
C2683       C  0.17456635  0.59204239  0.41378417    -0.16600
C2684       C  0.18516067  0.60081332  0.41144645    -0.14600
H2685       H  0.20480064  0.61563605  0.39816483     0.20800
H2686       H  0.17405351  0.58728976  0.37016789     0.16800
H2687       H  0.18953510  0.59511461  0.34931523     0.19300
H2688       H  0.19106036  0.60560808  0.41924370     0.12700
C2689       C  0.24317670  0.53031540  0.26494228     0.16600
C2690       C  0.24445673  0.51621437  0.26558505    -0.32500
C2691       C  0.24241989  0.50877019  0.25370966     0.20900
C2692       C  0.23943306  0.51512911  0.24168881     0.03100
C2693       C  0.23865292  0.52927074  0.24093642    -0.22200
C2694       C  0.24050374  0.53670891  0.25286133     0.12300
S2695       S  0.24351890  0.54089174  0.27855972    -0.05900
C2696       C  0.24014705  0.55411346  0.26789051    -0.09300
C2697       C  0.23900051  0.55045107  0.25444951    -0.25900
S2698       S  0.23572160  0.50430966  0.22880839    -0.03100
C2699       C  0.23819243  0.49106118  0.23971781    -0.16600
C2700       C  0.24198348  0.49492663  0.25257669    -0.14600
H2701       H  0.24631609  0.51122699  0.27506176     0.20800
H2702       H  0.23608963  0.53421445  0.23160756     0.16800
H2703       H  0.23642353  0.55733179  0.24643824     0.19300
H2704       H  0.24349164  0.48803384  0.26085213     0.12700
C2705       C  0.42052722  0.50296303  0.00501642     0.16600
C2706       C  0.43037682  0.50437758  0.01497163    -0.32500
C2707       C  0.43965479  0.51496054  0.01361025     0.20900
C2708       C  0.43917292  0.52371780  0.00278914     0.03100
C2709       C  0.42952953  0.52209764  0.99265848    -0.22200
C2710       C  0.42024382  0.51151949  0.99401853     0.12300
S2711       S  0.40769677  0.49152109  0.00543032    -0.05900
C2712       C  0.40202131  0.49815301  0.99050834    -0.09300
C2713       C  0.40976285  0.50865053  0.98552788    -0.25900
S2714       S  0.45085562  0.53634239  0.00336050    -0.03100
C2715       C  0.45658161  0.52971924  0.01829552    -0.16600
C2716       C  0.44968661  0.51827298  0.02247269    -0.14600
H2717       H  0.43059688  0.49772213  0.02357521     0.20800
H2718       H  0.42910913  0.52895905  0.98422674     0.16800
H2719       H  0.40748587  0.51426585  0.97650522     0.19300
H2720       H  0.45175066  0.51279085  0.03162943     0.12700
C2721       C  0.33017475  0.44013691  0.88885238     0.16600
C2722       C  0.32218560  0.43358725  0.87923066    -0.32500
C2723       C  0.32552052  0.43527900  0.86560252     0.20900
C2724       C  0.33640182  0.44308770  0.86176221     0.03100
C2725       C  0.34456350  0.44941940  0.87140923    -0.22200
C2726       C  0.34116064  0.44781759  0.88505123     0.12300
S2727       S  0.32706082  0.44020369  0.90573567    -0.05900
C2728       C  0.34067277  0.45075078  0.90782512    -0.09300
C2729       C  0.34734788  0.45382701  0.89592756    -0.25900
S2730       S  0.33819177  0.44472556  0.84474784    -0.03100
C2731       C  0.32415391  0.43474926  0.84272536    -0.16600
C2732       C  0.31853657  0.43032674  0.85472605    -0.14600
H2733       H  0.31351157  0.42774910  0.88223046     0.20800
H2734       H  0.35295525  0.45565074  0.86839246     0.16800
H2735       H  0.35585985  0.46055840  0.89520050     0.19300
H2736       H  0.30951447  0.42430925  0.85547718     0.12700
C2737       C  0.10154102  0.51659328  0.00441327     0.16600
C2738       C  0.09227967  0.51914476  0.99417567    -0.32500
C2739       C  0.08072687  0.52655376  0.99756711     0.20900
C2740       C  0.07859615  0.53144008  0.01053388     0.03100
C2741       C  0.08775167  0.52867532  0.02084986    -0.22200
C2742       C  0.09920544  0.52104455  0.01749851     0.12300
S2743       S  0.11625969  0.50800092  0.00223392    -0.05900
C2744       C  0.11917127  0.51005043  0.01920885    -0.09300
C2745       C  0.10922976  0.51716639  0.02609144    -0.25900
S2746       S  0.06428535  0.54082925  0.01238296    -0.03100
C2747       C  0.06095653  0.53781591  0.99559594    -0.16600
C2748       C  0.07055373  0.53001666  0.98900241    -0.14600
H2749       H  0.09402227  0.51553493  0.98399054     0.20800
H2750       H  0.08604222  0.53233990  0.03102037     0.16800
H2751       H  0.10941006  0.51950343  0.03675941     0.19300
H2752       H  0.07024432  0.52727471  0.97842921     0.12700
C2753       C  0.17041437  0.45085110  0.12645620     0.16600
C2754       C  0.17096173  0.45107241  0.14058640    -0.32500
C2755       C  0.18006688  0.44228407  0.14682838     0.20900
C2756       C  0.18785777  0.43328451  0.13939277     0.03100
C2757       C  0.18714675  0.43291272  0.12531557    -0.22200
C2758       C  0.17847524  0.44206388  0.11906313     0.12300
S2759       S  0.16133118  0.46182699  0.11682591    -0.05900
C2760       C  0.16893403  0.45484283  0.10276488    -0.09300
C2761       C  0.17762268  0.44427290  0.10551252    -0.25900
S2762       S  0.19886223  0.42405046  0.14872239    -0.03100
C2763       C  0.19327975  0.43271040  0.16278314    -0.16600
C2764       C  0.18313334  0.44198832  0.16027436    -0.14600
H2765       H  0.16506409  0.45824488  0.14641377     0.20800
H2766       H  0.19358041  0.42625382  0.11945364     0.16800
H2767       H  0.18354386  0.43890634  0.09801237     0.19300
H2768       H  0.17858189  0.44853461  0.16780707     0.12700
C2769       C  0.25193067  0.49333536  0.01804641     0.16600
C2770       C  0.26595623  0.49398999  0.01882974    -0.32500
C2771       C  0.27328440  0.49306743  0.00674536     0.20900
C2772       C  0.26686931  0.49176927  0.99445186     0.03100
C2773       C  0.25286357  0.49157629  0.99363572    -0.22200
C2774       C  0.24555903  0.49229567  0.00570832     0.12300
S2775       S  0.24135107  0.49260856  0.03158565    -0.05900
C2776       C  0.22821975  0.49095175  0.02049840    -0.09300
C2777       C  0.23191519  0.49116082  0.00703999    -0.25900
S2778       S  0.27737876  0.48930389  0.98110338    -0.03100
C2779       C  0.29063501  0.48994923  0.99213580    -0.16600
C2780       C  0.28699810  0.49226871  0.00545690    -0.14600
H2781       H  0.27094235  0.49457303  0.02846537     0.20800
H2782       H  0.24789373  0.49031362  0.98404981     0.16800
H2783       H  0.22507684  0.48981569  0.99871794     0.19300
H2784       H  0.29391823  0.49252169  0.01380483     0.12700
loop_ 
_geom_bond_atom_site_label_1 
_geom_bond_atom_site_label_2 
_geom_bond_distance 
_geom_bond_site_symmetry_2 
_ccdc_geom_bond_type 
N1            N2   1.321       .  A
N1            C5   1.351       .  A
N1           Cu9   2.094       .  S
N2            C3   1.340       .  A
N2           Cu8   2.056       .  S
C3            C4   1.381       .  A
C3            H6   1.082       .  S
C4            C5   1.390       .  A
C4         C2760   1.476       .  S
C5            H7   1.082       .  S
Cu8          N11   2.057       .  S
Cu9          N19   2.095       .  S
Cu10         N12   2.084       .  S
Cu10         N18   2.087       .  S
N11          N12   1.320       .  A
N11          C15   1.342       .  A
N12          C13   1.349       .  A
C13          C14   1.388       .  A
C13          H16   1.082       .  S
C14          C15   1.379       .  A
C14        C2776   1.472       .  S
C15          H17   1.082       .  S
N18          N19   1.326       .  A
N18          C22   1.346       .  A
N19          C20   1.348       .  A
C20          C21   1.385       .  A
C20          H23   1.082       .  S
C21          C22   1.383       .  A
C21        C2744   1.477       .  S
C22          H24   1.082       .  S
N25          N26   1.320       .  A
N25          C29   1.355       .  A
N25         Cu33   2.110       .  S
N26          C27   1.338       .  A
N26         Cu32   2.043       .  S
C27          C28   1.378       .  A
C27          H30   1.082       .  S
C28          C29   1.396       .  A
C28        C2728   1.481       .  S
C29          H31   1.082       .  S
Cu32         N35   2.043       .  S
Cu33         N43   2.113       .  S
Cu34         N36   2.091       .  S
Cu34         N42   2.095       .  S
N35          N36   1.319       .  A
N35          C39   1.338       .  A
N36          C37   1.353       .  A
C37          C38   1.392       .  A
C37          H40   1.082   1_556  S
C38          C39   1.378       .  A
C38        C2779   1.474       .  S
C39          H41   1.082       .  S
N42          N43   1.329       .  A
N42          C46   1.347       .  A
N43          C44   1.351       .  A
C44          C45   1.386       .  A
C44          H47   1.082       .  S
C45          C46   1.381       .  A
C45        C2712   1.477       .  S
C46          H48   1.082   1_556  S
N49          N50   1.321       .  A
N49          C53   1.350       .  A
N49         Cu57   2.092       .  S
N50          C51   1.341       .  A
N50         Cu56   2.054       .  S
C51          C52   1.380       .  A
C51          H54   1.082       .  S
C52          C53   1.389       .  A
C52        C2680   1.474       .  S
C53          H55   1.082       .  S
Cu56         N59   2.054       .  S
Cu57         N67   2.094       .  S
Cu58         N60   2.095       .  S
Cu58         N66   2.097       .  S
N59          N60   1.321       .  A
N59          C63   1.341       .  A
N60          C61   1.351       .  A
C61          C62   1.389       .  A
C61          H64   1.082       .  S
C62          C63   1.378       .  A
C62        C2696   1.473       .  S
C63          H65   1.082       .  S
N66          N67   1.326       .  A
N66          C70   1.349       .  A
N67          C68   1.347       .  A
C68          C69   1.384       .  A
C68          H71   1.082       .  S
C69          C70   1.385       .  A
C69        C2664   1.478       .  S
C70          H72   1.082       .  S
N73          N74   1.321       .  A
N73          C77   1.350       .  A
N73         Cu81   2.101       .  S
N74          C75   1.342       .  A
N74         Cu80   2.054       .  S
C75          C76   1.381       .  A
C75          H78   1.082       .  S
C76          C77   1.391       .  A
C76        C2763   1.478       .  S
C77          H79   1.082       .  S
Cu80         N83   2.055       .  S
Cu81         N91   2.102       .  S
Cu82         N84   2.090       .  S
Cu82         N90   2.093       .  S
N83          N84   1.321       .  A
N83          C87   1.340       .  A
N84          C85   1.351       .  A
C85          C86   1.390       .  A
C85          H88   1.082       .  S
C86          C87   1.379       .  A
C86        C2699   1.474       .  S
C87          H89   1.082       .  S
N90          N91   1.326       .  A
N90          C94   1.347       .  A
N91          C92   1.351       .  A
C92          C93   1.388       .  A
C92          H95   1.082       .  S
C93          C94   1.385       .  A
C93        C2648   1.483       .  S
C94          H96   1.082       .  S
N97          N98   1.321       .  A
N97         C101   1.351       .  A
N97        Cu105   2.097       .  S
N98          C99   1.341       .  A
N98        Cu104   2.052       .  S
C99         C100   1.380       .  A
C99         H102   1.082       .  S
C100        C101   1.391       .  A
C100       C2616   1.476       .  S
C101        H103   1.082       .  S
Cu104       N107   2.052       .  S
Cu105       N115   2.099       .  S
Cu106       N108   2.095       .  S
Cu106       N114   2.097       .  S
N107        N108   1.320       .  A
N107        C111   1.341       .  A
N108        C109   1.350       .  A
C109        C110   1.391       .  A
C109        H112   1.082       .  S
C110        C111   1.380       .  A
C110       C2635   1.476       .  S
C111        H113   1.082       .  S
N114        N115   1.326       .  A
N114        C118   1.348       .  A
N115        C116   1.350       .  A
C116        C117   1.386       .  A
C116        H119   1.082       .  S
C117        C118   1.384       .  A
C117       C2600   1.480       .  S
C118        H120   1.082       .  S
N121        N122   1.321       .  A
N121        C125   1.352       .  A
N121       Cu129   2.098       .  S
N122        C123   1.339       .  A
N122       Cu128   2.048       .  S
C123        C124   1.378       .  A
C123        H126   1.082       .  S
C124        C125   1.391       .  A
C124       C2683   1.475       .  S
C125        H127   1.082       .  S
Cu128       N131   2.049       .  S
Cu129       N139   2.100       .  S
Cu130       N132   2.096       .  S
Cu130       N138   2.098       .  S
N131        N132   1.320       .  A
N131        C135   1.341       .  A
N132        C133   1.351       .  A
C133        C134   1.391       .  A
C133        H136   1.082       .  S
C134        C135   1.380       .  A
C134       C2632   1.476       .  S
C135        H137   1.082       .  S
N138        N139   1.327       .  A
N138        C142   1.347       .  A
N139        C140   1.350       .  A
C140        C141   1.385       .  A
C140        H143   1.082       .  S
C141        C142   1.385       .  A
C141       C2584   1.481       .  S
C142        H144   1.082       .  S
N145        N146   1.321       .  A
N145        C149   1.351       .  A
N145       Cu153   2.100       .  S
N146        C147   1.341       .  A
N146       Cu152   2.052       .  S
C147        C148   1.379       .  A
C147        H150   1.082       .  S
C148        C149   1.390       .  A
C148       C2619   1.475       .  S
C149        H151   1.082       .  S
Cu152       N155   2.053       .  S
Cu153       N163   2.101       .  S
Cu154       N156   2.095       .  S
Cu154       N162   2.097       .  S
N155        N156   1.321       .  A
N155        C159   1.341       .  A
N156        C157   1.351       .  A
C157        C158   1.390       .  A
C157        H160   1.082       .  S
C158        C159   1.380       .  A
C158       C2568   1.476       .  S
C159        H161   1.082       .  S
N162        N163   1.326       .  A
N162        C166   1.348       .  A
N163        C164   1.350       .  A
C164        C165   1.387       .  A
C164        H167   1.082       .  S
C165        C166   1.386       .  A
C165       C2552   1.484       .  S
C166        H168   1.082       .  S
N169        N170   1.322       .  A
N169        C173   1.353       .  A
N169       Cu177   2.110       .  S
N170        C171   1.342       .  A
N170       Cu176   2.058       .  S
C171        C172   1.380       .  A
C171        H174   1.082       .  S
C172        C173   1.393       .  A
C172       C2731   1.481       .  S
C173        H175   1.082       .  S
Cu176       N179   2.059       .  S
Cu177       N187   2.112       .  S
Cu178       N180   2.084       .  S
Cu178       N186   2.086       .  S
N179        N180   1.321       .  A
N179        C183   1.342       .  A
N180        C181   1.350       .  A
C181        C182   1.386       .  A
C181        H184   1.082       .  S
C182        C183   1.380       .  A
C182       C2571   1.471       .  S
C183        H185   1.082       .  S
N186        N187   1.326       .  A
N186        C190   1.346       .  A
N187        C188   1.352       .  A
C188        C189   1.389       .  A
C188        H191   1.082       .  S
C189        C190   1.384       .  A
C189       C2536   1.484       .  S
C190        H192   1.082       .  S
N193        N194   1.321       .  A
N193        C197   1.351       .  A
N193       Cu201   2.093       .  S
N194        C195   1.341       .  A
N194       Cu200   2.057       .  S
C195        C196   1.380       .  A
C195        H198   1.082       .  S
C196        C197   1.390       .  A
C196       C2504   1.476       .  S
C197        H199   1.082       .  S
Cu200       N203   2.058       .  S
Cu201       N211   2.095       .  S
Cu202       N204   2.092       .  S
Cu202       N210   2.095       .  S
N203        N204   1.320       .  A
N203        C207   1.341       .  A
N204        C205   1.350       .  A
C205        C206   1.390       .  A
C205        H208   1.082       .  S
C206        C207   1.383       .  A
C206       C2520   1.479       .  S
C207        H209   1.081       .  S
N210        N211   1.326       .  A
N210        C214   1.348       .  A
N211        C212   1.348       .  A
C212        C213   1.384       .  A
C212        H215   1.082       .  S
C213        C214   1.385       .  A
C213       C2488   1.480       .  S
C214        H216   1.082       .  S
N217        N218   1.321       .  A
N217        C221   1.353       .  A
N217       Cu225   2.090       .  S
N218        C219   1.337       .  A
N218       Cu224   2.056       .  S
C219        C220   1.378       .  A
C219        H222   1.082       .  S
C220        C221   1.390       .  A
C220       C2472   1.473       .  S
C221        H223   1.082       .  S
Cu224       N227   2.056       .  S
Cu225       N235   2.093       .  S
Cu226       N228   2.086       .  S
Cu226       N234   2.087       .  S
N227        N228   1.319       .  A
N227        C231   1.343       .  A
N228        C229   1.348       .  A
C229        C230   1.390       .  A
C229        H232   1.082       .  S
C230        C231   1.383       .  A
C230       C2523   1.478       .  S
C231        H233   1.082       .  S
N234        N235   1.326       .  A
N234        C238   1.344       .  A
N235        C236   1.350       .  A
C236        C237   1.386       .  A
C236        H239   1.082       .  S
C237        C238   1.382       .  A
C237       C2456   1.477       .  S
C238        H240   1.082       .  S
N241        N242   1.321       .  A
N241        C245   1.353       .  A
N241       Cu249   2.100       .  S
N242        C243   1.337       .  A
N242       Cu248   2.043       .  S
C243        C244   1.375       .  A
C243        H246   1.082       .  S
C244        C245   1.392       .  A
C244       C2507   1.471       .  S
C245        H247   1.082       .  S
Cu248       N251   2.043       .  S
Cu249       N259   2.103       .  S
Cu250       N252   2.083       .  S
Cu250       N258   2.085       .  S
N251        N252   1.318       .  A
N251        C255   1.339       .  A
N252        C253   1.349       .  A
C253        C254   1.391       .  A
C253        H256   1.082       .  S
C254        C255   1.380       .  A
C254       C2443   1.474       .  S
C255        H257   1.082       .  S
N258        N259   1.327       .  A
N258        C262   1.346       .  A
N259        C260   1.349       .  A
C260        C261   1.386       .  A
C260        H263   1.082       .  S
C261        C262   1.380       .  A
C261       C2424   1.475       .  S
C262        H264   1.082       .  S
N265        N266   1.321       .  A
N265        C269   1.348       .  A
N265       Cu273   2.087       .  S
N266        C267   1.342       .  A
N266       Cu272   2.056       .  S
C267        C268   1.380       .  A
C267        H270   1.082       .  S
C268        C269   1.388       .  A
C268       C2408   1.472       .  S
C269        H271   1.082       .  S
Cu272       N275   2.057       .  S
Cu273       N283   2.089       .  S
Cu274       N276   2.096       .  S
Cu274       N282   2.099       .  S
N275        N276   1.322       .  A
N275        C279   1.341       .  A
N276        C277   1.351       .  A
C277        C278   1.389       .  A
C277        H280   1.082       .  S
C278        C279   1.378       .  A
C278       C2440   1.472       .  S
C279        H281   1.082       .  S
N282        N283   1.325       .  A
N282        C286   1.348       .  A
N283        C284   1.348       .  A
C284        C285   1.384       .  A
C284        H287   1.082       .  S
C285        C286   1.387       .  A
C285       C2392   1.482       .  S
C286        H288   1.082       .  S
N289        N290   1.320       .  A
N289        C293   1.350       .  A
N289       Cu297   2.093       .  S
N290        C291   1.340       .  A
N290       Cu296   2.050       .  S
C291        C292   1.379       .  A
C291        H294   1.082       .  S
C292        C293   1.391       .  A
C292       C2360   1.475       .  S
C293        H295   1.082       .  S
Cu296       N299   2.051       .  S
Cu297       N307   2.095       .  S
Cu298       N300   2.083       .  S
Cu298       N306   2.086       .  S
N299        N300   1.320       .  A
N299        C303   1.340       .  A
N300        C301   1.348       .  A
C301        C302   1.389       .  A
C301        H304   1.082       .  S
C302        C303   1.379       .  A
C302       C2376   1.472       .  S
C303        H305   1.082       .  S
N306        N307   1.325       .  A
N306        C310   1.347       .  A
N307        C308   1.347       .  A
C308        C309   1.385       .  A
C308        H311   1.082       .  S
C309        C310   1.385       .  A
C309       C2344   1.480       .  S
C310        H312   1.082       .  S
N313        N314   1.320       .  A
N313        C317   1.353       .  A
N313       Cu321   2.093       .  S
N314        C315   1.337       .  A
N314       Cu320   2.057       .  S
C315        C316   1.383       .  A
C315        H318   1.081       .  S
C316        C317   1.392       .  A
C316       C2475   1.482       .  S
C317        H319   1.082       .  S
Cu320       N323   2.057       .  S
Cu321       N331   2.096       .  S
Cu322       N324   2.072       .  S
Cu322       N330   2.074       .  S
N323        N324   1.320       .  A
N323        C327   1.341       .  A
N324        C325   1.346       .  A
C325        C326   1.386       .  A
C325        H328   1.082       .  S
C326        C327   1.380       .  A
C326       C2379   1.469       .  S
C327        H329   1.082       .  S
N330        N331   1.325       .  A
N330        C334   1.344       .  A
N331        C332   1.349       .  A
C332        C333   1.386       .  A
C332        H335   1.082       .  S
C333        C334   1.380       .  A
C333       C2328   1.475       .  S
C334        H336   1.082       .  S
N337        N338   1.321       .  A
N337        C341   1.352       .  A
N337       Cu345   2.100       .  S
N338        C339   1.339       .  A
N338       Cu344   2.050       .  S
C339        C340   1.377       .  A
C339        H342   1.082       .  S
C340        C341   1.391       .  A
C340       C2363   1.473       .  S
C341        H343   1.082       .  S
Cu344       N347   2.050       .  S
Cu345       N355   2.102       .  S
Cu346       N348   2.088       .  S
Cu346       N354   2.089       .  S
N347        N348   1.320       .  A
N347        C351   1.342       .  A
N348        C349   1.348       .  A
C349        C350   1.389       .  A
C349        H352   1.082       .  S
C350        C351   1.380       .  A
C350       C2315   1.473       .  S
C351        H353   1.082       .  S
N354        N355   1.326       .  A
N354        C358   1.347       .  A
N355        C356   1.349       .  A
C356        C357   1.386       .  A
C356        H359   1.082       .  S
C357        C358   1.383       .  A
C357       C2299   1.479       .  S
C358        H360   1.082       .  S
N361        N362   1.321       .  A
N361        C365   1.350       .  A
N361       Cu369   2.092       .  S
N362        C363   1.341       .  A
N362       Cu368   2.058       .  S
C363        C364   1.379       .  A
C363        H366   1.082       .  S
C364        C365   1.389       .  A
C364       C2411   1.474       .  S
C365        H367   1.082       .  S
Cu368       N371   2.058       .  S
Cu369       N379   2.095       .  S
Cu370       N372   2.089       .  S
Cu370       N378   2.091   1_545  S
N371        N372   1.321   1_565  A
N371        C375   1.341       .  A
N372        C373   1.350       .  A
C373        C374   1.389       .  A
C373        H376   1.082       .  S
C374        C375   1.381   1_545  A
C374       C2312   1.476       .  S
C375        H377   1.082       .  S
N378        N379   1.326       .  A
N378        C382   1.347   1_565  A
N379        C380   1.348       .  A
C380        C381   1.385   1_565  A
C380        H383   1.082       .  S
C381        C382   1.384       .  A
C381       C2280   1.479       .  S
C382        H384   1.082       .  S
N385        N386   1.320       .  A
N385        C389   1.348       .  A
N385       Cu393   2.085       .  S
N386        C387   1.341       .  A
N386       Cu392   2.054       .  S
C387        C388   1.381       .  A
C387        H390   1.082       .  S
C388        C389   1.389       .  A
C388       C2248   1.475       .  S
C389        H391   1.082       .  S
Cu392       N395   2.055       .  S
Cu393       N403   2.086       .  S
Cu394       N396   2.092       .  S
Cu394       N402   2.094       .  S
N395        N396   1.321       .  A
N395        C399   1.341       .  A
N396        C397   1.351       .  A
C397        C398   1.390       .  A
C397        H400   1.082       .  S
C398        C399   1.379       .  A
C398       C2264   1.475       .  S
C399        H401   1.082       .  S
N402        N403   1.325       .  A
N402        C406   1.348       .  A
N403        C404   1.346       .  A
C404        C405   1.383       .  A
C404        H407   1.082       .  S
C405        C406   1.386       .  A
C405       C2232   1.479       .  S
C406        H408   1.082       .  S
N409        N410   1.320       .  A
N409        C413   1.354       .  A
N409       Cu417   2.103       .  S
N410        C411   1.337       .  A
N410       Cu416   2.041       .  S
C411        C412   1.377       .  A
C411        H414   1.082       .  S
C412        C413   1.394       .  A
C412       C2216   1.478       .  S
C413        H415   1.082       .  S
Cu416       N419   2.041       .  S
Cu417       N427   2.107       .  S
Cu418       N420   2.094       .  S
Cu418       N426   2.098       .  S
N419        N420   1.318       .  A
N419        C423   1.338       .  A
N420        C421   1.353       .  A
C421        C422   1.393       .  A
C421        H424   1.082       .  S
C422        C423   1.378       .  A
C422       C2267   1.475       .  S
C423        H425   1.082       .  S
N426        N427   1.328       .  A
N426        C430   1.346       .  A
N427        C428   1.351       .  A
C428        C429   1.386       .  A
C428        H431   1.082       .  S
C429        C430   1.383       .  A
C429       C2200   1.481       .  S
C430        H432   1.082       .  S
N433        N434   1.322       .  A
N433        C437   1.350       .  A
N433       Cu441   2.094       .  S
N434        C435   1.341       .  A
N434       Cu440   2.056       .  S
C435        C436   1.378       .  A
C435        H438   1.082       .  S
C436        C437   1.388       .  A
C436       C2168   1.471       .  S
C437        H439   1.082       .  S
Cu440       N443   2.056       .  S
Cu441       N451   2.095       .  S
Cu442       N444   2.072       .  S
Cu442       N450   2.074       .  S
N443        N444   1.320       .  A
N443        C447   1.341       .  A
N444        C445   1.347       .  A
C445        C446   1.386       .  A
C445        H448   1.082       .  S
C446        C447   1.381       .  A
C446       C2184   1.470       .  S
C447        H449   1.082       .  S
N450        N451   1.325       .  A
N450        C454   1.343       .  A
N451        C452   1.350       .  A
C452        C453   1.387       .  A
C452        H455   1.082       .  S
C453        C454   1.381       .  A
C453       C2155   1.475       .  S
C454        H456   1.082       .  S
N457        N458   1.321       .  A
N457        C461   1.351       .  A
N457       Cu465   2.094       .  S
N458        C459   1.340       .  A
N458       Cu464   2.052       .  S
C459        C460   1.378       .  A
C459        H462   1.082       .  S
C460        C461   1.389       .  A
C460       C2219   1.471       .  S
C461        H463   1.082       .  S
Cu464       N467   2.052       .  S
Cu465       N475   2.095       .  S
Cu466       N468   2.080       .  S
Cu466       N474   2.083       .  S
N467        N468   1.320       .  A
N467        C471   1.341       .  A
N468        C469   1.348   1_655  A
C469        C470   1.386   1_455  A
C469        H472   1.082       .  S
C470        C471   1.379       .  A
C470       C2187   1.469   1_655  S
C471        H473   1.082       .  S
N474        N475   1.326       .  A
N474        C478   1.345       .  A
N475        C476   1.348       .  A
C476        C477   1.387       .  A
C476        H479   1.082       .  S
C477        C478   1.383       .  A
C477       C2136   1.479       .  S
C478        H480   1.082   1_655  S
N481        N482   1.321       .  A
N481        C485   1.353       .  A
N481       Cu489   2.103       .  S
N482        C483   1.339       .  A
N482       Cu488   2.047       .  S
C483        C484   1.378       .  A
C483        H486   1.082       .  S
C484        C485   1.393       .  A
C484       C2104   1.478       .  S
C485        H487   1.082       .  S
Cu488       N491   2.048       .  S
Cu489       N499   2.105       .  S
Cu490       N492   2.090       .  S
Cu490       N498   2.093       .  S
N491        N492   1.319       .  A
N491        C495   1.341       .  A
N492        C493   1.349       .  A
C493        C494   1.389       .  A
C493        H496   1.082       .  S
C494        C495   1.379       .  A
C494       C2120   1.473       .  S
C495        H497   1.082       .  S
N498        N499   1.327       .  A
N498        C502   1.346       .  A
N499        C500   1.350       .  A
C500        C501   1.388       .  A
C500        H503   1.082       .  S
C501        C502   1.384       .  A
C501       C2088   1.484       .  S
C502        H504   1.082       .  S
N505        N506   1.322       .  A
N505        C509   1.352       .  A
N505       Cu513   2.097       .  S
N506        C507   1.338       .  A
N506       Cu512   2.052       .  S
C507        C508   1.379       .  A
C507        H510   1.082       .  S
C508        C509   1.390       .  A
C508       C2251   1.475       .  S
C509        H511   1.082       .  S
Cu512       N515   2.053       .  S
Cu513       N523   2.099       .  S
Cu514       N516   2.082       .  S
Cu514       N522   2.084       .  S
N515        N516   1.319       .  A
N515        C519   1.341       .  A
N516        C517   1.348       .  A
C517        C518   1.388       .  A
C517        H520   1.082       .  S
C518        C519   1.381       .  A
C518       C2123   1.473       .  S
C519        H521   1.082       .  S
N522        N523   1.326       .  A
N522        C526   1.346       .  A
N523        C524   1.349       .  A
C524        C525   1.386       .  A
C524        H527   1.082       .  S
C525        C526   1.382       .  A
C525       C2072   1.477       .  S
C526        H528   1.082       .  S
N529        N530   1.322       .  A
N529        C533   1.353       .  A
N529       Cu537   2.109       .  S
N530        C531   1.340       .  A
N530       Cu536   2.054       .  S
C531        C532   1.379       .  A
C531        H534   1.082       .  S
C532        C533   1.393       .  A
C532       C2107   1.479       .  S
C533        H535   1.082       .  S
Cu536       N539   2.055       .  S
Cu537       N547   2.111       .  S
Cu538       N540   2.092       .  S
Cu538       N546   2.094       .  S
N539        N540   1.320       .  A
N539        C543   1.341       .  A
N540        C541   1.351       .  A
C541        C542   1.391       .  A
C541        H544   1.082       .  S
C542        C543   1.381       .  A
C542       C2059   1.479       .  S
C543        H545   1.082       .  S
N546        N547   1.327       .  A
N546        C550   1.347       .  A
N547        C548   1.351       .  A
C548        C549   1.389       .  A
C548        H551   1.082       .  S
C549        C550   1.384       .  A
C549       C2043   1.486       .  S
C550        H552   1.082       .  S
N553        N554   1.320       .  A
N553        C557   1.352       .  A
N553       Cu561   2.095       .  S
N554        C555   1.339       .  A
N554       Cu560   2.048       .  S
C555        C556   1.377       .  A
C555        H558   1.082       .  S
C556        C557   1.390       .  A
C556       C2171   1.472       .  S
C557        H559   1.082       .  S
Cu560       N563   2.047       .  S
Cu561       N571   2.098       .  S
Cu562       N564   2.103       .  S
Cu562       N570   2.106       .  S
N563        N564   1.320       .  A
N563        C567   1.340       .  A
N564        C565   1.352       .  A
C565        C566   1.393       .  A
C565        H568   1.082       .  S
C566        C567   1.378       .  A
C566       C2056   1.477       .  S
C567        H569   1.082       .  S
N570        N571   1.327       .  A
N570        C574   1.350       .  A
N571        C572   1.348       .  A
C572        C573   1.385       .  A
C572        H575   1.082       .  S
C573        C574   1.387       .  A
C573       C2024   1.484       .  S
C574        H576   1.082       .  S
N577        N578   1.321       .  A
N577        C581   1.354       .  A
N577       Cu585   2.105       .  S
N578        C579   1.340       .  A
N578       Cu584   2.056       .  S
C579        C580   1.379       .  A
C579        H582   1.082       .  S
C580        C581   1.393       .  A
C580       C1992   1.480       .  S
C581        H583   1.082       .  S
Cu584       N587   2.056       .  S
Cu585       N595   2.108       .  S
Cu586       N588   2.095       .  S
Cu586       N594   2.097       .  S
N587        N588   1.320       .  A
N587        C591   1.341       .  A
N588        C589   1.351       .  A
C589        C590   1.391       .  A
C589        H592   1.082       .  S
C590        C591   1.381       .  A
C590       C2008   1.478       .  S
C591        H593   1.082       .  S
N594        N595   1.327       .  A
N594        C598   1.348       .  A
N595        C596   1.350       .  A
C596        C597   1.387       .  A
C596        H599   1.082       .  S
C597        C598   1.385       .  A
C597       C1979   1.484       .  S
C598        H600   1.082       .  S
N601        N602   1.323       .  A
N601        C605   1.354       .  A
N601       Cu609   2.114       .  S
N602        C603   1.341       .  A
N602       Cu608   2.063       .  S
C603        C604   1.380       .  A
C603        H606   1.082       .  S
C604        C605   1.393       .  A
C604       C1960   1.481       .  S
C605        H607   1.082       .  S
Cu608       N611   2.063       .  S
Cu609       N619   2.115       .  S
Cu610       N612   2.082       .  S
Cu610       N618   2.084       .  S
N611        N612   1.319       .  A
N611        C615   1.344       .  A
N612        C613   1.347       .  A
C613        C614   1.388       .  A
C613        H616   1.082       .  S
C614        C615   1.385       .  A
C614       C2011   1.479       .  S
C615        H617   1.082       .  S
N618        N619   1.326       .  A
N618        C622   1.346       .  A
N619        C620   1.353       .  A
C620        C621   1.391       .  A
C620        H623   1.082       .  S
C621        C622   1.382       .  A
C621       C1944   1.484       .  S
C622        H624   1.082       .  S
N625        N626   1.322       .  A
N625        C629   1.351       .  A
N625       Cu633   2.106       .  S
N626        C627   1.342       .  A
N626       Cu632   2.054       .  S
C627        C628   1.379       .  A
C627        H630   1.082       .  S
C628        C629   1.392       .  A
C628       C1995   1.477       .  S
C629        H631   1.082       .  S
Cu632       N635   2.056       .  S
Cu633       N643   2.107       .  S
Cu634       N636   2.086       .  S
Cu634       N642   2.088       .  S
N635        N636   1.321       .  A
N635        C639   1.341       .  A
N636        C637   1.349       .  A
C637        C638   1.387       .  A
C637        H640   1.082   1_565  S
C638        C639   1.380       .  A
C638       C1928   1.473       .  S
C639        H641   1.082       .  S
N642        N643   1.325       .  A
N642        C646   1.347   1_565  A
N643        C644   1.351       .  A
C644        C645   1.388   1_565  A
C644        H647   1.082       .  S
C645        C646   1.385       .  A
C645       C1912   1.484       .  S
C646        H648   1.082       .  S
N649        N650   1.322       .  A
N649        C653   1.352       .  A
N649       Cu657   2.102       .  S
N650        C651   1.341       .  A
N650       Cu656   2.057       .  S
C651        C652   1.380       .  A
C651        H654   1.082       .  S
C652        C653   1.391       .  A
C652       C1896   1.478       .  S
C653        H655   1.082       .  S
Cu656       N659   2.056       .  S
Cu657       N667   2.103       .  S
Cu658       N660   2.073       .  S
Cu658       N666   2.075       .  S
N659        N660   1.320       .  A
N659        C663   1.341       .  A
N660        C661   1.348       .  A
C661        C662   1.384       .  A
C661        H664   1.082       .  S
C662        C663   1.379       .  A
C662       C1931   1.466       .  S
C663        H665   1.082       .  S
N666        N667   1.326       .  A
N666        C670   1.343   1_565  A
N667        C668   1.350   1_565  A
C668        C669   1.387       .  A
C668        H671   1.082       .  S
C669        C670   1.380       .  A
C669       C1880   1.476       .  S
C670        H672   1.082       .  S
N673        N674   1.321       .  A
N673        C677   1.352       .  A
N673       Cu681   2.094       .  S
N674        C675   1.338       .  A
N674       Cu680   2.048       .  S
C675        C676   1.376       .  A
C675        H678   1.082       .  S
C676        C677   1.390       .  A
C676       C1851   1.471       .  S
C677        H679   1.082       .  S
Cu680       N683   2.047       .  S
Cu681       N691   2.097       .  S
Cu682       N684   2.087       .  S
Cu682       N690   2.089       .  S
N683        N684   1.319       .  A
N683        C687   1.340       .  A
N684        C685   1.349       .  A
C685        C686   1.389       .  A
C685        H688   1.082       .  S
C686        C687   1.379       .  A
C686       C1864   1.471       .  S
C687        H689   1.082       .  S
N690        N691   1.327       .  A
N690        C694   1.346       .  A
N691        C692   1.349       .  A
C692        C693   1.386       .  A
C692        H695   1.082       .  S
C693        C694   1.382       .  A
C693       C1835   1.477       .  S
C694        H696   1.082       .  S
N697        N698   1.323       .  A
N697        C701   1.350       .  A
N697       Cu705   2.099       .  S
N698        C699   1.342       .  A
N698       Cu704   2.061       .  S
C699        C700   1.380       .  A
C699        H702   1.082       .  S
C700        C701   1.389       .  A
C700       C1899   1.476       .  S
C701        H703   1.082       .  S
Cu704       N707   2.062       .  S
Cu705       N715   2.100       .  S
Cu706       N708   2.075       .  S
Cu706       N714   2.077       .  S
N707        N708   1.320       .  A
N707        C711   1.343       .  A
N708        C709   1.347       .  A
C709        C710   1.386       .  A
C709        H712   1.082       .  S
C710        C711   1.382       .  A
C710       C1867   1.473       .  S
C711        H713   1.082       .  S
N714        N715   1.324       .  A
N714        C718   1.344       .  A
N715        C716   1.351       .  A
C716        C717   1.388       .  A
C716        H719   1.082       .  S
C717        C718   1.382       .  A
C717       C1816   1.479       .  S
C718        H720   1.082       .  S
N721        N722   1.320       .  A
N721        C725   1.351       .  A
N721       Cu729   2.094       .  S
N722        C723   1.341       .  A
N722       Cu728   2.053       .  S
C723        C724   1.380       .  A
C723        H726   1.082       .  S
C724        C725   1.391       .  A
C724       C1963   1.477       .  S
C725        H727   1.082       .  S
Cu728       N731   2.052       .  S
Cu729       N739   2.095       .  S
Cu730       N732   2.084       .  S
Cu730       N738   2.087       .  S
N731        N732   1.320       .  A
N731        C735   1.338       .  A
N732        C733   1.351       .  A
C733        C734   1.390       .  A
C733        H736   1.082       .  S
C734        C735   1.378       .  A
C734       C1800   1.472       .  S
C735        H737   1.082       .  S
N738        N739   1.327       .  A
N738        C742   1.347       .  A
N739        C740   1.347       .  A
C740        C741   1.383       .  A
C740        H743   1.082       .  S
C741        C742   1.382       .  A
C741       C1787   1.474       .  S
C742        H744   1.082   1_556  S
N745        N746   1.320       .  A
N745        C749   1.352       .  A
N745       Cu753   2.098       .  S
N746        C747   1.338       .  A
N746       Cu752   2.041       .  S
C747        C748   1.376       .  A
C747        H750   1.082       .  S
C748        C749   1.392       .  A
C748       C1848   1.471       .  S
C749        H751   1.082       .  S
Cu752       N755   2.042       .  S
Cu753       N763   2.101       .  S
Cu754       N756   2.080       .  S
Cu754       N762   2.083       .  S
N755        N756   1.318       .  A
N755        C759   1.338       .  A
N756        C757   1.350       .  A
C757        C758   1.389       .  A
C757        H760   1.082       .  S
C758        C759   1.376       .  A
C758       C1803   1.467       .  S
C759        H761   1.082       .  S
N762        N763   1.327       .  A
N762        C766   1.344       .  A
N763        C764   1.350       .  A
C764        C765   1.386       .  A
C764        H767   1.082       .  S
C765        C766   1.380       .  A
C765       C1768   1.475       .  S
C766        H768   1.082       .  S
C769        N770   1.362       .  A
C769        N774   1.360       .  A
C769       C1784   1.475       .  S
N770        C771   1.361       .  A
C771        N772   1.361       .  A
C771       C1752   1.480       .  S
N772        C773   1.360       .  A
C773        N774   1.358       .  A
C773       C2296   1.477       .  S
C775        N776   1.365       .  A
C775        N780   1.361       .  A
C775       C1915   1.483       .  S
N776        C777   1.365       .  A
C777        N778   1.359       .  A
C777       C2091   1.477       .  S
N778        C779   1.357       .  A
C779        N780   1.359       .  A
C779       C2283   1.476       .  S
N781        N782   1.321       .  A
N781        C785   1.350       .  A
N781       Cu789   2.089       .  S
N782        C783   1.341       .  A
N782       Cu788   2.056       .  S
C783        C784   1.378       .  A
C783        H786   1.082       .  S
C784        C785   1.387       .  A
C784       C1720   1.470       .  S
C785        H787   1.082       .  S
Cu788       N791   2.054       .  S
Cu789       N799   2.091       .  S
Cu790       N792   2.096       .  S
Cu790       N798   2.097       .  S
N791        N792   1.321       .  A
N791        C795   1.342       .  A
N792        C793   1.349       .  A
C793        C794   1.390       .  A
C793        H796   1.082       .  S
C794        C795   1.379       .  A
C794       C1736   1.474       .  S
C795        H797   1.082       .  S
N798        N799   1.326       .  A
N798        C802   1.348       .  A
N799        C800   1.348       .  A
C800        C801   1.384       .  A
C800        H803   1.082       .  S
C801        C802   1.385       .  A
C801       C1704   1.479       .  S
C802        H804   1.082       .  S
N805        N806   1.322       .  A
N805        C809   1.356       .  A
N805       Cu813   2.115       .  S
N806        C807   1.341       .  A
N806       Cu812   2.062       .  S
C807        C808   1.379       .  A
C807        H810   1.082       .  S
C808        C809   1.395       .  A
C808       C1688   1.484       .  S
C809        H811   1.082       .  S
Cu812       N815   2.062       .  S
Cu813       N823   2.116       .  S
Cu814       N816   2.080       .  S
Cu814       N822   2.082       .  S
N815        N816   1.319       .  A
N815        C819   1.341       .  A
N816        C817   1.350       .  A
C817        C818   1.389       .  A
C817        H820   1.082       .  S
C818        C819   1.382       .  A
C818       C1739   1.477       .  S
C819        H821   1.082       .  S
N822        N823   1.327       .  A
N822        C826   1.345       .  A
N823        C824   1.352       .  A
C824        C825   1.389       .  A
C824        H827   1.082       .  S
C825        C826   1.381       .  A
C825       C1672   1.481       .  S
C826        H828   1.082       .  S
N829        N830   1.320       .  A
N829        C833   1.353       .  A
N829       Cu837   2.100       .  S
N830        C831   1.338       .  A
N830       Cu836   2.042       .  S
C831        C832   1.377       .  A
C831        H834   1.082       .  S
C832        C833   1.392       .  A
C832       C1723   1.474       .  S
C833        H835   1.082       .  S
Cu836       N839   2.043       .  S
Cu837       N847   2.104       .  S
Cu838       N840   2.109       .  S
Cu838       N846   2.112       .  S
N839        N840   1.320       .  A
N839        C843   1.339       .  A
N840        C841   1.355       .  A
C841        C842   1.394       .  A
C841        H844   1.082       .  S
C842        C843   1.376       .  A
C842       C1659   1.476       .  S
C843        H845   1.082       .  S
N846        N847   1.328       .  A
N846        C850   1.349       .  A
N847        C848   1.350       .  A
C848        C849   1.386       .  A
C848        H851   1.082       .  S
C849        C850   1.387       .  A
C849       C1640   1.487   1_556  S
C850        H852   1.082       .  S
N853        N854   1.322       .  A
N853        C857   1.354       .  A
N853       Cu861   2.108       .  S
N854        C855   1.340       .  A
N854       Cu860   2.057       .  S
C855        C856   1.379       .  A
C855        H858   1.082       .  S
C856        C857   1.394       .  A
C856       C1624   1.481       .  S
C857        H859   1.082       .  S
Cu860       N863   2.058       .  S
Cu861       N871   2.109       .  S
Cu862       N864   2.093       .  S
Cu862       N870   2.095       .  S
N863        N864   1.320       .  A
N863        C867   1.342       .  A
N864        C865   1.351       .  A
C865        C866   1.392       .  A
C865        H868   1.082       .  S
C866        C867   1.381       .  A
C866       C1656   1.480       .  S
C867        H869   1.082       .  S
N870        N871   1.327       .  A
N870        C874   1.347       .  A
N871        C872   1.351       .  A
C872        C873   1.388       .  A
C872        H875   1.082       .  S
C873        C874   1.383       .  A
C873       C1755   1.482       .  S
C874        H876   1.082       .  S
N877        N878   1.320       .  A
N877        C881   1.354       .  A
N877       Cu885   2.102       .  S
N878        C879   1.341       .  A
N878       Cu884   2.059       .  S
C879        C880   1.380       .  A
C879        H882   1.082       .  S
C880        C881   1.393       .  A
C880       C1691   1.480       .  S
C881        H883   1.082       .  S
Cu884       N887   2.058       .  S
Cu885       N895   2.104       .  S
Cu886       N888   2.085       .  S
Cu886       N894   2.089       .  S
N887        N888   1.320       .  A
N887        C891   1.338       .  A
N888        C889   1.352       .  A
C889        C890   1.390       .  A
C889        H892   1.082   1_655  S
C890        C891   1.380       .  A
C890       C1608   1.475       .  S
C891        H893   1.082       .  S
N894        N895   1.328       .  A
N894        C898   1.347       .  A
N895        C896   1.348       .  A
C896        C897   1.384       .  A
C896        H899   1.082       .  S
C897        C898   1.382       .  A
C897       C1592   1.476       .  S
C898        H900   1.082   1_655  S
N901        N902   1.321       .  A
N901        C905   1.353       .  A
N901       Cu909   2.108       .  S
N902        C903   1.339       .  A
N902       Cu908   2.045       .  S
C903        C904   1.378       .  A
C903        H906   1.082       .  S
C904        C905   1.393       .  A
C904       C1576   1.478       .  S
C905        H907   1.082       .  S
Cu908       N911   2.047       .  S
Cu909       N919   2.111       .  S
Cu910       N912   2.083       .  S
Cu910       N918   2.086       .  S
N911        N912   1.319       .  A
N911        C915   1.341       .  A
N912        C913   1.348       .  A
C913        C914   1.388       .  A
C913        H916   1.082       .  S
C914        C915   1.378       .  A
C914       C1611   1.470       .  S
C915        H917   1.082       .  S
N918        N919   1.326       .  A
N918        C922   1.347       .  A
N919        C920   1.350       .  A
C920        C921   1.388       .  A
C920        H923   1.082       .  S
C921        C922   1.384       .  A
C921       C1563   1.483       .  S
C922        H924   1.082       .  S
N925        N926   1.323       .  A
N925        C929   1.354       .  A
N925       Cu933   2.112       .  S
N926        C927   1.342       .  A
N926       Cu932   2.066       .  S
C927        C928   1.380       .  A
C927        H930   1.082       .  S
C928        C929   1.393       .  A
C928       C1627   1.482       .  S
C929        H931   1.082       .  S
Cu932       N935   2.066       .  S
Cu933       N943   2.113       .  S
Cu934       N936   2.089       .  S
Cu934       N942   2.090       .  S
N935        N936   1.320       .  A
N935        C939   1.344       .  A
N936        C937   1.349       .  A
C937        C938   1.390       .  A
C937        H940   1.082       .  S
C938        C939   1.385       .  A
C938       C1544   1.482       .  S
C939        H941   1.081       .  S
N942        N943   1.326       .  A
N942        C946   1.348       .  A
N943        C944   1.351       .  A
C944        C945   1.389       .  A
C944        H947   1.082       .  S
C945        C946   1.383       .  A
C945       C1531   1.483       .  S
C946        H948   1.082       .  S
N949        N950   1.321       .  A
N949        C953   1.351       .  A
N949       Cu957   2.095       .  S
N950        C951   1.342       .  A
N950       Cu956   2.060       .  S
C951        C952   1.380       .  A
C951        H954   1.082       .  S
C952        C953   1.389       .  A
C952       C1579   1.475       .  S
C953        H955   1.082       .  S
Cu956       N959   2.059       .  S
Cu957       N967   2.097       .  S
Cu958       N960   2.095       .  S
Cu958       N966   2.096       .  S
N959        N960   1.321       .  A
N959        C963   1.342       .  A
N960        C961   1.350       .  A
C961        C962   1.390       .  A
C961        H964   1.082       .  S
C962        C963   1.381       .  A
C962       C1547   1.477       .  S
C963        H965   1.082       .  S
N966        N967   1.326       .  A
N966        C970   1.347       .  A
N967        C968   1.349       .  A
C968        C969   1.386       .  A
C968        H971   1.082       .  S
C969        C970   1.385       .  A
C969       C1512   1.481       .  S
C970        H972   1.082       .  S
C973        N974   1.359       .  A
C973        N978   1.362       .  A
C973       C1595   1.479       .  S
N974        C975   1.358       .  A
C975        N976   1.362       .  A
C975       C2747   1.477       .  S
N976        C977   1.362       .  A
C977        N978   1.362       .  A
C977       C1496   1.481       .  S
C979        N980   1.361       .  A
C979        N984   1.361       .  A
C979       C1643   1.481       .  S
N980        C981   1.363       .  A
C981        N982   1.361       .  A
C981       C2459   1.481       .  S
N982        C983   1.361       .  A
C983        N984   1.361       .  A
C983       C2715   1.483       .  S
N985        N986   1.322       .  A
N985        C989   1.350       .  A
N985       Cu993   2.092       .  S
N986        C987   1.342       .  A
N986       Cu992   2.065       .  S
C987        C988   1.381       .  A
C987        H990   1.082       .  S
C988        C989   1.388       .  A
C988       C1464   1.475       .  S
C989        H991   1.082       .  S
Cu992       N995   2.065       .  S
Cu993      N1003   2.093       .  S
Cu994       N996   2.096       .  S
Cu994      N1002   2.097       .  S
N995        N996   1.321       .  A
N995        C999   1.344       .  A
N996        C997   1.349       .  A
C997        C998   1.390       .  A
C997       H1000   1.082       .  S
C998        C999   1.383       .  A
C998       C1480   1.480       .  S
C999       H1001   1.082       .  S
N1002      N1003   1.325       .  A
N1002      C1006   1.347       .  A
N1003      C1004   1.350       .  A
C1004      C1005   1.386       .  A
C1004      H1007   1.082       .  S
C1005      C1006   1.386       .  A
C1005      C1448   1.482       .  S
C1006      H1008   1.082       .  S
N1009      N1010   1.322       .  A
N1009      C1013   1.350       .  A
N1009     Cu1017   2.095       .  S
N1010      C1011   1.342       .  A
N1010     Cu1016   2.058       .  S
C1011      C1012   1.379       .  A
C1011      H1014   1.082       .  S
C1012      C1013   1.389       .  A
C1012      C1432   1.473       .  S
C1013      H1015   1.082       .  S
Cu1016     N1019   2.058       .  S
Cu1017     N1027   2.097       .  S
Cu1018     N1020   2.097       .  S
Cu1018     N1026   2.099       .  S
N1019      N1020   1.321       .  A
N1019      C1023   1.342       .  A
N1020      C1021   1.352       .  A
C1021      C1022   1.390       .  A
C1021      H1024   1.082       .  S
C1022      C1023   1.380       .  A
C1022      C1483   1.476       .  S
C1023      H1025   1.082       .  S
N1026      N1027   1.326       .  A
N1026      C1030   1.347       .  A
N1027      C1028   1.350       .  A
C1028      C1029   1.386       .  A
C1028      H1031   1.082       .  S
C1029      C1030   1.385       .  A
C1029      C1419   1.480       .  S
C1030      H1032   1.082       .  S
N1033      N1034   1.320       .  A
N1033      C1037   1.350       .  A
N1033     Cu1041   2.092       .  S
N1034      C1035   1.341       .  A
N1034     Cu1040   2.056       .  S
C1035      C1036   1.381       .  A
C1035      H1038   1.082       .  S
C1036      C1037   1.389       .  A
C1036      C1467   1.475       .  S
C1037      H1039   1.082       .  S
Cu1040     N1043   2.056       .  S
Cu1041     N1051   2.094       .  S
Cu1042     N1044   2.107       .  S
Cu1042     N1050   2.110       .  S
N1043      N1044   1.322       .  A
N1043      C1047   1.341       .  A
N1044      C1045   1.353       .  A
C1045      C1046   1.393       .  A
C1045      H1048   1.082       .  S
C1046      C1047   1.379       .  A
C1046      C1400   1.480       .  S
C1047      H1049   1.082       .  S
N1050      N1051   1.326       .  A
N1050      C1054   1.351       .  A
N1051      C1052   1.347       .  A
C1052      C1053   1.385       .  A
C1052      H1055   1.082       .  S
C1053      C1054   1.389       .  A
C1053      C1384   1.486       .  S
C1054      H1056   1.082       .  S
N1057      N1058   1.321       .  A
N1057      C1061   1.356       .  A
N1057     Cu1065   2.115       .  S
N1058      C1059   1.338       .  A
N1058     Cu1064   2.047       .  S
C1059      C1060   1.375       .  A
C1059      H1062   1.082       .  S
C1060      C1061   1.395       .  A
C1060      C1368   1.478       .  S
C1061      H1063   1.082       .  S
Cu1064     N1067   2.046       .  S
Cu1065     N1075   2.119       .  S
Cu1066     N1068   2.093       .  S
Cu1066     N1074   2.095       .  S
N1067      N1068   1.318       .  A
N1067      C1071   1.340       .  A
N1068      C1069   1.351       .  A
C1069      C1070   1.392       .  A
C1069      H1072   1.082       .  S
C1070      C1071   1.380       .  A
C1070      C1403   1.477       .  S
C1071      H1073   1.082       .  S
N1074      N1075   1.328       .  A
N1074      C1078   1.345       .  A
N1075      C1076   1.354       .  A
C1076      C1077   1.390       .  A
C1076      H1079   1.082       .  S
C1077      C1078   1.382       .  A
C1077      C1499   1.485       .  S
C1078      H1080   1.082       .  S
N1081      N1082   1.320       .  A
N1081      C1085   1.351       .  A
N1081     Cu1089   2.088       .  S
N1082      C1083   1.339       .  A
N1082     Cu1088   2.052       .  S
C1083      C1084   1.379       .  A
C1083      H1086   1.082       .  S
C1084      C1085   1.390       .  A
C1084      C1435   1.473       .  S
C1085      H1087   1.082       .  S
Cu1088     N1091   2.052       .  S
Cu1089     N1099   2.091       .  S
Cu1090     N1092   2.093       .  S
Cu1090     N1098   2.096       .  S
N1091      N1092   1.320       .  A
N1091      C1095   1.340       .  A
N1092      C1093   1.351   1_565  A
C1093      C1094   1.391   1_545  A
C1093      H1096   1.082       .  S
C1094      C1095   1.380       .  A
C1094      C1355   1.476   1_565  S
C1095      H1097   1.082       .  S
N1098      N1099   1.327       .  A
N1098      C1102   1.347   1_565  A
N1099      C1100   1.347       .  A
C1100      C1101   1.384       .  A
C1100      H1103   1.082       .  S
C1101      C1102   1.385   1_565  A
C1101      C1336   1.478   1_565  S
C1102      H1104   1.082       .  S
N1105      N1106   1.322       .  A
N1105      C1109   1.351       .  A
N1105     Cu1113   2.100       .  S
N1106      C1107   1.342       .  A
N1106     Cu1112   2.059       .  S
C1107      C1108   1.381       .  A
C1107      H1110   1.082       .  S
C1108      C1109   1.390       .  A
C1108      C1320   1.478       .  S
C1109      H1111   1.082       .  S
Cu1112     N1115   2.059       .  S
Cu1113     N1123   2.102       .  S
Cu1114     N1116   2.088       .  S
Cu1114     N1122   2.090       .  S
N1115      N1116   1.321       .  A
N1115      C1119   1.341       .  A
N1116      C1117   1.351       .  A
C1117      C1118   1.389       .  A
C1117      H1120   1.082       .  S
C1118      C1119   1.380       .  A
C1118      C1352   1.474       .  S
C1119      H1121   1.082       .  S
N1122      N1123   1.326       .  A
N1122      C1126   1.346       .  A
N1123      C1124   1.351       .  A
C1124      C1125   1.388       .  A
C1124      H1127   1.082       .  S
C1125      C1126   1.383       .  A
C1125      C1307   1.482       .  S
C1126      H1128   1.082       .  S
N1129      N1130   1.320       .  A
N1129      C1133   1.352       .  A
N1129     Cu1137   2.103       .  S
N1130      C1131   1.341       .  A
N1130     Cu1136   2.049       .  S
C1131      C1132   1.380       .  A
C1131      H1134   1.082       .  S
C1132      C1133   1.392       .  A
C1132      C1323   1.479       .  S
C1133      H1135   1.082       .  S
Cu1136     N1139   2.049       .  S
Cu1137     N1147   2.105       .  S
Cu1138     N1140   2.097       .  S
Cu1138     N1146   2.100       .  S
N1139      N1140   1.321       .  A
N1139      C1143   1.340       .  A
N1140      C1141   1.352       .  A
C1141      C1142   1.391       .  A
C1141      H1144   1.082       .  S
C1142      C1143   1.377       .  A
C1142      C1291   1.473       .  S
C1143      H1145   1.082       .  S
N1146      N1147   1.327       .  A
N1146      C1150   1.349       .  A
N1147      C1148   1.349       .  A
C1148      C1149   1.387       .  A
C1148      H1151   1.082       .  S
C1149      C1150   1.386       .  A
C1149      C1272   1.486       .  S
C1150      H1152   1.082       .  S
N1153      N1154   1.321       .  A
N1153      C1157   1.353       .  A
N1153     Cu1161   2.102       .  S
N1154      C1155   1.341       .  A
N1154     Cu1160   2.052       .  S
C1155      C1156   1.378       .  A
C1155      H1158   1.082       .  S
C1156      C1157   1.391       .  A
C1156      C1371   1.475       .  S
C1157      H1159   1.082       .  S
Cu1160     N1163   2.052       .  S
Cu1161     N1171   2.105       .  S
Cu1162     N1164   2.096       .  S
Cu1162     N1170   2.098       .  S
N1163      N1164   1.321       .  A
N1163      C1167   1.340       .  A
N1164      C1165   1.352       .  A
C1165      C1166   1.391       .  A
C1165      H1168   1.082       .  S
C1166      C1167   1.378       .  A
C1166      C1288   1.475       .  S
C1167      H1169   1.082       .  S
N1170      N1171   1.327       .  A
N1170      C1174   1.348       .  A
N1171      C1172   1.350       .  A
C1172      C1173   1.386       .  A
C1172      H1175   1.082       .  S
C1173      C1174   1.385       .  A
C1173      C1256   1.482       .  S
C1174      H1176   1.082       .  S
C1177      N1178   1.358       .  A
C1177      N1182   1.361       .  A
C1177      C1339   1.473       .  S
N1178      C1179   1.357       .  A
C1179      N1180   1.359       .  A
C1179      C2152   1.471       .  S
N1180      C1181   1.360       .  A
C1181      N1182   1.362       .  A
C1181      C1883   1.477       .  S
C1183      N1184   1.359       .  A
C1183      N1188   1.360       .  A
C1183      C1387   1.479       .  S
N1184      C1185   1.361       .  A
C1185      N1186   1.363       .  A
C1185      C2139   1.476       .  S
N1186      C1187   1.362       .  A
C1187      N1188   1.362       .  A
C1187      C2587   1.480       .  S
C1189      N1190   1.361       .  A
C1189      N1194   1.362       .  A
C1189      C1560   1.480       .  S
N1190      C1191   1.361   1_565  A
C1191      N1192   1.360       .  A
C1191      C1771   1.478       .  S
N1192      C1193   1.360   1_545  A
C1193      N1194   1.361       .  A
C1193      C1304   1.480   1_565  S
C1195      N1196   1.361       .  A
C1195      N1200   1.361       .  A
C1195      C1976   1.482       .  S
N1196      C1197   1.362       .  A
C1197      N1198   1.362       .  A
C1197      C1451   1.482       .  S
N1198      C1199   1.362       .  A
C1199      N1200   1.361       .  A
C1199      C1707   1.480       .  S
C1201      N1202   1.361       .  A
C1201      N1206   1.360       .  A
C1201      C1528   1.484       .  S
N1202      C1203   1.363       .  A
C1203      N1204   1.363       .  A
C1203      C1416   1.482       .  S
N1204      C1205   1.362       .  A
C1205      N1206   1.361       .  A
C1205      C2555   1.482       .  S
C1207      N1208   1.361       .  A
C1207      N1212   1.359       .  A
C1207      C1259   1.476       .  S
N1208      C1209   1.363       .  A
C1209      N1210   1.363       .  A
C1209      C1947   1.484       .  S
N1210      C1211   1.362       .  A
C1211      N1212   1.359       .  A
C1211      C2235   1.479       .  S
C1213      N1214   1.362       .  A
C1213      N1218   1.362       .  A
C1213      C1819   1.476       .  S
N1214      C1215   1.361       .  A
C1215      N1216   1.358       .  A
C1215      C2427   1.475       .  S
N1216      C1217   1.357       .  A
C1217      N1218   1.360       .  A
C1217      C1675   1.476       .  S
C1219      N1220   1.362       .  A
C1219      N1224   1.359       .  A
C1219      C2203   1.477       .  S
N1220      C1221   1.363       .  A
C1221      N1222   1.361       .  A
C1221      C1832   1.478       .  S
N1222      C1223   1.360       .  A
C1223      N1224   1.358       .  A
C1223      C2331   1.479       .  S
C1225      N1226   1.360       .  A
C1225      N1230   1.362       .  A
C1225      C2539   1.483       .  S
N1226      C1227   1.359       .  A
C1227      N1228   1.362       .  A
C1227      C2040   1.484       .  S
N1228      C1229   1.364       .  A
C1229      N1230   1.364       .  A
C1229      C1275   1.481       .  S
C1231      N1232   1.364       .  A
C1231      N1236   1.360       .  A
C1231      C2395   1.481       .  S
N1232      C1233   1.365       .  A
C1233      N1234   1.360       .  A
C1233      C1515   1.480       .  S
N1234      C1235   1.358       .  A
C1235      N1236   1.359       .  A
C1235      C2667   1.480       .  S
C1237      N1238   1.362       .  A
C1237      N1242   1.359       .  A
C1237      C2491   1.481       .  S
N1238      C1239   1.363       .  A
C1239      N1240   1.362       .  A
C1239      C2603   1.483       .  S
N1240      C1241   1.361       .  A
C1241      N1242   1.359       .  A
C1241      C2075   1.481       .  S
C1243      N1244   1.362       .  A
C1243      N1248   1.365       .  A
C1243      C2027   1.483       .  S
N1244      C1245   1.359       .  A
C1245      N1246   1.358       .  A
C1245      C2347   1.476       .  S
N1246      C1247   1.360       .  A
C1247      N1248   1.365       .  A
C1247      C2651   1.481       .  S
C1249      C1254   1.386       .  A
C1249      C1250   1.406       .  A
C1249      S1255   1.713       .  A
C1250      C1251   1.406       .  A
C1250      H1261   1.083       .  S
C1251      C1260   1.377       .  A
C1251      C1252   1.387       .  A
C1252      C1253   1.405       .  A
C1252      S1258   1.711       .  A
C1253      C1254   1.405       .  A
C1253      H1262   1.083       .  S
C1254      C1257   1.375       .  A
S1255      C1256   1.725       .  A
C1256      C1257   1.389       .  A
C1257      H1263   1.083       .  S
S1258      C1259   1.723       .  A
C1259      C1260   1.388       .  A
C1260      H1264   1.083       .  S
C1265      C1270   1.386       .  A
C1265      C1266   1.405       .  A
C1265      S1271   1.711       .  A
C1266      C1267   1.405       .  A
C1266      H1277   1.083       .  S
C1267      C1276   1.376       .  A
C1267      C1268   1.386       .  A
C1268      C1269   1.407       .  A
C1268      S1274   1.714       .  A
C1269      C1270   1.408       .  A
C1269      H1278   1.083       .  S
C1270      C1273   1.378       .  A
S1271      C1272   1.725       .  A
C1272      C1273   1.392       .  A
C1273      H1279   1.083       .  S
S1274      C1275   1.726       .  A
C1275      C1276   1.388       .  A
C1276      H1280   1.083       .  S
C1281      C1286   1.387       .  A
C1281      C1282   1.403   1_655  A
C1281      S1287   1.704       .  A
C1282      C1283   1.403       .  A
C1282      H1293   1.083       .  S
C1283      C1292   1.375       .  A
C1283      C1284   1.387       .  A
C1284      C1285   1.403   1_455  A
C1284      S1290   1.704       .  A
C1285      C1286   1.402       .  A
C1285      H1294   1.083       .  S
C1286      C1289   1.375       .  A
S1287      C1288   1.725       .  A
C1288      C1289   1.386       .  A
C1289      H1295   1.083       .  S
S1290      C1291   1.724       .  A
C1291      C1292   1.386       .  A
C1292      H1296   1.083       .  S
C1297      C1302   1.386       .  A
C1297      C1298   1.405       .  A
C1297      S1303   1.710   1_455  A
C1298      C1299   1.405       .  A
C1298      H1309   1.083       .  S
C1299      C1308   1.377       .  A
C1299      C1300   1.387       .  A
C1300      C1301   1.404       .  A
C1300      S1306   1.709       .  A
C1301      C1302   1.404       .  A
C1301      H1310   1.083   1_545  S
C1302      C1305   1.375   1_445  A
S1303      C1304   1.725       .  A
C1304      C1305   1.389   1_545  A
C1305      H1311   1.083   1_655  S
S1306      C1307   1.725       .  A
C1307      C1308   1.389       .  A
C1308      H1312   1.083       .  S
C1313      C1318   1.386       .  A
C1313      C1314   1.403       .  A
C1313      S1319   1.713       .  A
C1314      C1315   1.405       .  A
C1314      H1325   1.083       .  S
C1315      C1324   1.371       .  A
C1315      C1316   1.386       .  A
C1316      C1317   1.402       .  A
C1316      S1322   1.712       .  A
C1317      C1318   1.404       .  A
C1317      H1326   1.083       .  S
C1318      C1321   1.371       .  A
S1319      C1320   1.723       .  A
C1320      C1321   1.388       .  A
C1321      H1327   1.083       .  S
S1322      C1323   1.722       .  A
C1323      C1324   1.390       .  A
C1324      H1328   1.083       .  S
C1329      C1334   1.386       .  A
C1329      C1330   1.405       .  A
C1329      S1335   1.710   1_545  A
C1330      C1331   1.405   1_455  A
C1330      H1341   1.083   1_445  S
C1331      C1340   1.375       .  A
C1331      C1332   1.387   1_655  A
C1332      C1333   1.402       .  A
C1332      S1338   1.706       .  A
C1333      C1334   1.402       .  A
C1333      H1342   1.083       .  S
C1334      C1337   1.372       .  A
S1335      C1336   1.725   1_565  A
C1336      C1337   1.387       .  A
C1337      H1343   1.083       .  S
S1338      C1339   1.722   1_455  A
C1339      C1340   1.388       .  A
C1340      H1344   1.083       .  S
C1345      C1350   1.386       .  A
C1345      C1346   1.403   1_545  A
C1345      S1351   1.713       .  A
C1346      C1347   1.405   1_565  A
C1346      H1357   1.083       .  S
C1347      C1356   1.369   1_545  A
C1347      C1348   1.386       .  A
C1348      C1349   1.402       .  A
C1348      S1354   1.712       .  A
C1349      C1350   1.404       .  A
C1349      H1358   1.083       .  S
C1350      C1353   1.369       .  A
S1351      C1352   1.722       .  A
C1352      C1353   1.387       .  A
C1353      H1359   1.083       .  S
S1354      C1355   1.722       .  A
C1355      C1356   1.389   1_545  A
C1356      H1360   1.083       .  S
C1361      C1366   1.387       .  A
C1361      C1362   1.405       .  A
C1361      S1367   1.704       .  A
C1362      C1363   1.403       .  A
C1362      H1373   1.083       .  S
C1363      C1372   1.377       .  A
C1363      C1364   1.387       .  A
C1364      C1365   1.405       .  A
C1364      S1370   1.706       .  A
C1365      C1366   1.404       .  A
C1365      H1374   1.083       .  S
C1366      C1369   1.378       .  A
S1367      C1368   1.726       .  A
C1368      C1369   1.387       .  A
C1369      H1375   1.083       .  S
S1370      C1371   1.724       .  A
C1371      C1372   1.387       .  A
C1372      H1376   1.083       .  S
C1377      C1382   1.386       .  A
C1377      C1378   1.408       .  A
C1377      S1383   1.715       .  A
C1378      C1379   1.408       .  A
C1378      H1389   1.083       .  S
C1379      C1388   1.378       .  A
C1379      C1380   1.387       .  A
C1380      C1381   1.404       .  A
C1380      S1386   1.711       .  A
C1381      C1382   1.405       .  A
C1381      H1390   1.083       .  S
C1382      C1385   1.375       .  A
S1383      C1384   1.727   1_455  A
C1384      C1385   1.390   1_655  A
C1385      H1391   1.083       .  S
S1386      C1387   1.723       .  A
C1387      C1388   1.390       .  A
C1388      H1392   1.083       .  S
C1393      C1398   1.387       .  A
C1393      C1394   1.404       .  A
C1393      S1399   1.705       .  A
C1394      C1395   1.403       .  A
C1394      H1405   1.083       .  S
C1395      C1404   1.376       .  A
C1395      C1396   1.387       .  A
C1396      C1397   1.404       .  A
C1396      S1402   1.705       .  A
C1397      C1398   1.403       .  A
C1397      H1406   1.083       .  S
C1398      C1401   1.376       .  A
S1399      C1400   1.726       .  A
C1400      C1401   1.387       .  A
C1401      H1407   1.083       .  S
S1402      C1403   1.725       .  A
C1403      C1404   1.387       .  A
C1404      H1408   1.083       .  S
C1409      C1414   1.386       .  A
C1409      C1410   1.404       .  A
C1409      S1415   1.710       .  A
C1410      C1411   1.404       .  A
C1410      H1421   1.083       .  S
C1411      C1420   1.374       .  A
C1411      C1412   1.386       .  A
C1412      C1413   1.408       .  A
C1412      S1418   1.715       .  A
C1413      C1414   1.408       .  A
C1413      H1422   1.083       .  S
C1414      C1417   1.379       .  A
S1415      C1416   1.724       .  A
C1416      C1417   1.391       .  A
C1417      H1423   1.083       .  S
S1418      C1419   1.726       .  A
C1419      C1420   1.387       .  A
C1420      H1424   1.083       .  S
C1425      C1430   1.387       .  A
C1425      C1426   1.404       .  A
C1425      S1431   1.707       .  A
C1426      C1427   1.404       .  A
C1426      H1437   1.083       .  S
C1427      C1436   1.375       .  A
C1427      C1428   1.387       .  A
C1428      C1429   1.400       .  A
C1428      S1434   1.702       .  A
C1429      C1430   1.400       .  A
C1429      H1438   1.083       .  S
C1430      C1433   1.371       .  A
S1431      C1432   1.725       .  A
C1432      C1433   1.384       .  A
C1433      H1439   1.083       .  S
S1434      C1435   1.723       .  A
C1435      C1436   1.387       .  A
C1436      H1440   1.083       .  S
C1441      C1446   1.386       .  A
C1441      C1442   1.403       .  A
C1441      S1447   1.708       .  A
C1442      C1443   1.403       .  A
C1442      H1453   1.083       .  S
C1443      C1452   1.374       .  A
C1443      C1444   1.386       .  A
C1444      C1445   1.408       .  A
C1444      S1450   1.715       .  A
C1445      C1446   1.409       .  A
C1445      H1454   1.082       .  S
C1446      C1449   1.379       .  A
S1447      C1448   1.723       .  A
C1448      C1449   1.391       .  A
C1449      H1455   1.083       .  S
S1450      C1451   1.728       .  A
C1451      C1452   1.388       .  A
C1452      H1456   1.083       .  S
C1457      C1462   1.387       .  A
C1457      C1458   1.403       .  A
C1457      S1463   1.712       .  A
C1458      C1459   1.405       .  A
C1458      H1469   1.083       .  S
C1459      C1468   1.370       .  A
C1459      C1460   1.387       .  A
C1460      C1461   1.401       .  A
C1460      S1466   1.711       .  A
C1461      C1462   1.403       .  A
C1461      H1470   1.083       .  S
C1462      C1465   1.369       .  A
S1463      C1464   1.723       .  A
C1464      C1465   1.387       .  A
C1465      H1471   1.083       .  S
S1466      C1467   1.721       .  A
C1467      C1468   1.388       .  A
C1468      H1472   1.083       .  S
C1473      C1478   1.386       .  A
C1473      C1474   1.401   1_655  A
C1473      S1479   1.709       .  A
C1474      C1475   1.403       .  A
C1474      H1485   1.083       .  S
C1475      C1484   1.370       .  A
C1475      C1476   1.386       .  A
C1476      C1477   1.405       .  A
C1476      S1482   1.715       .  A
C1477      C1478   1.407   1_455  A
C1477      H1486   1.083       .  S
C1478      C1481   1.374       .  A
S1479      C1480   1.722       .  A
C1480      C1481   1.391       .  A
C1481      H1487   1.083       .  S
S1482      C1483   1.724       .  A
C1483      C1484   1.387       .  A
C1484      H1488   1.083       .  S
C1489      C1494   1.386       .  A
C1489      C1490   1.408       .  A
C1489      S1495   1.713       .  A
C1490      C1491   1.408       .  A
C1490      H1501   1.083       .  S
C1491      C1500   1.380       .  A
C1491      C1492   1.386       .  A
C1492      C1493   1.405       .  A
C1492      S1498   1.708   1_455  A
C1493      C1494   1.404       .  A
C1493      H1502   1.083       .  S
C1494      C1497   1.376       .  A
S1495      C1496   1.726       .  A
C1496      C1497   1.389       .  A
C1497      H1503   1.083       .  S
S1498      C1499   1.726       .  A
C1499      C1500   1.391   1_655  A
C1500      H1504   1.083       .  S
C1505      C1510   1.386       .  A
C1505      C1506   1.405       .  A
C1505      S1511   1.713       .  A
C1506      C1507   1.407       .  A
C1506      H1517   1.083       .  S
C1507      C1516   1.374       .  A
C1507      C1508   1.386       .  A
C1508      C1509   1.404       .  A
C1508      S1514   1.713       .  A
C1509      C1510   1.405       .  A
C1509      H1518   1.083       .  S
C1510      C1513   1.374       .  A
S1511      C1512   1.726       .  A
C1512      C1513   1.388       .  A
C1513      H1519   1.083       .  S
S1514      C1515   1.724       .  A
C1515      C1516   1.390       .  A
C1516      H1520   1.083       .  S
C1521      C1526   1.386       .  A
C1521      C1522   1.408       .  A
C1521      S1527   1.715       .  A
C1522      C1523   1.408       .  A
C1522      H1533   1.083       .  S
C1523      C1532   1.378       .  A
C1523      C1524   1.386       .  A
C1524      C1525   1.404       .  A
C1524      S1530   1.712       .  A
C1525      C1526   1.405       .  A
C1525      H1534   1.083       .  S
C1526      C1529   1.375       .  A
S1527      C1528   1.727       .  A
C1528      C1529   1.389       .  A
C1529      H1535   1.083       .  S
S1530      C1531   1.723       .  A
C1531      C1532   1.391       .  A
C1532      H1536   1.083       .  S
C1537      C1542   1.386       .  A
C1537      C1538   1.404   1_556  A
C1537      S1543   1.712       .  A
C1538      C1539   1.405       .  A
C1538      H1549   1.083   1_554  S
C1539      C1548   1.372       .  A
C1539      C1540   1.386       .  A
C1540      C1541   1.403       .  A
C1540      S1546   1.712       .  A
C1541      C1542   1.405   1_554  A
C1541      H1550   1.083       .  S
C1542      C1545   1.372       .  A
S1543      C1544   1.725       .  A
C1544      C1545   1.390       .  A
C1545      H1551   1.082       .  S
S1546      C1547   1.723       .  A
C1547      C1548   1.389       .  A
C1548      H1552   1.083       .  S
C1553      C1558   1.386   1_655  A
C1553      C1554   1.406   1_556  A
C1553      S1559   1.713       .  A
C1554      C1555   1.407   1_655  A
C1554      H1565   1.083       .  S
C1555      C1564   1.375       .  A
C1555      C1556   1.386       .  A
C1556      C1557   1.404   1_554  A
C1556      S1562   1.712       .  A
C1557      C1558   1.405       .  A
C1557      H1566   1.083       .  S
C1558      C1561   1.375       .  A
S1559      C1560   1.726       .  A
C1560      C1561   1.388   1_655  A
C1561      H1567   1.083       .  S
S1562      C1563   1.724       .  A
C1563      C1564   1.391       .  A
C1564      H1568   1.083       .  S
C1569      C1574   1.386       .  A
C1569      C1570   1.403       .  A
C1569      S1575   1.713       .  A
C1570      C1571   1.405       .  A
C1570      H1581   1.083       .  S
C1571      C1580   1.371       .  A
C1571      C1572   1.387       .  A
C1572      C1573   1.402       .  A
C1572      S1578   1.712       .  A
C1573      C1574   1.404       .  A
C1573      H1582   1.083       .  S
C1574      C1577   1.369       .  A
S1575      C1576   1.723       .  A
C1576      C1577   1.389       .  A
C1577      H1583   1.083       .  S
S1578      C1579   1.722       .  A
C1579      C1580   1.388       .  A
C1580      H1584   1.083       .  S
C1585      C1590   1.387   1_655  A
C1585      C1586   1.403   1_554  A
C1585      S1591   1.709       .  A
C1586      C1587   1.404   1_655  A
C1586      H1597   1.083       .  S
C1587      C1596   1.374       .  A
C1587      C1588   1.387   1_556  A
C1588      C1589   1.404       .  A
C1588      S1594   1.710       .  A
C1589      C1590   1.405       .  A
C1589      H1598   1.083       .  S
C1590      C1593   1.374       .  A
S1591      C1592   1.722       .  A
C1592      C1593   1.388   1_655  A
C1593      H1599   1.083       .  S
S1594      C1595   1.726   1_554  A
C1595      C1596   1.388       .  A
C1596      H1600   1.083       .  S
C1601      C1606   1.387   1_655  A
C1601      C1602   1.398       .  A
C1601      S1607   1.698       .  A
C1602      C1603   1.397   1_655  A
C1602      H1613   1.083       .  S
C1603      C1612   1.369       .  A
C1603      C1604   1.387       .  A
C1604      C1605   1.406       .  A
C1604      S1610   1.708       .  A
C1605      C1606   1.406       .  A
C1605      H1614   1.083       .  S
C1606      C1609   1.377       .  A
S1607      C1608   1.722       .  A
C1608      C1609   1.389   1_655  A
C1609      H1615   1.083       .  S
S1610      C1611   1.726       .  A
C1611      C1612   1.382       .  A
C1612      H1616   1.083       .  S
C1617      C1622   1.386       .  A
C1617      C1618   1.404       .  A
C1617      S1623   1.715       .  A
C1618      C1619   1.407       .  A
C1618      H1629   1.083       .  S
C1619      C1628   1.373       .  A
C1619      C1620   1.386       .  A
C1620      C1621   1.404       .  A
C1620      S1626   1.714       .  A
C1621      C1622   1.406       .  A
C1621      H1630   1.083       .  S
C1622      C1625   1.371       .  A
S1623      C1624   1.724       .  A
C1624      C1625   1.390       .  A
C1625      H1631   1.083       .  S
S1626      C1627   1.723       .  A
C1627      C1628   1.391       .  A
C1628      H1632   1.083       .  S
C1633      C1638   1.386       .  A
C1633      C1634   1.408       .  A
C1633      S1639   1.714       .  A
C1634      C1635   1.408       .  A
C1634      H1645   1.083       .  S
C1635      C1644   1.378       .  A
C1635      C1636   1.386       .  A
C1636      C1637   1.405       .  A
C1636      S1642   1.711       .  A
C1637      C1638   1.405       .  A
C1637      H1646   1.083       .  S
C1638      C1641   1.376       .  A
S1639      C1640   1.728       .  A
C1640      C1641   1.390       .  A
C1641      H1647   1.082   1_554  S
S1642      C1643   1.724       .  A
C1643      C1644   1.391       .  A
C1644      H1648   1.083       .  S
C1649      C1654   1.387       .  A
C1649      C1650   1.405       .  A
C1649      S1655   1.706       .  A
C1650      C1651   1.404       .  A
C1650      H1661   1.083       .  S
C1651      C1660   1.378       .  A
C1651      C1652   1.387       .  A
C1652      C1653   1.404       .  A
C1652      S1658   1.705       .  A
C1653      C1654   1.403       .  A
C1653      H1662   1.083       .  S
C1654      C1657   1.376       .  A
S1655      C1656   1.726       .  A
C1656      C1657   1.388       .  A
C1657      H1663   1.083       .  S
S1658      C1659   1.725       .  A
C1659      C1660   1.387       .  A
C1660      H1664   1.083       .  S
C1665      C1670   1.386       .  A
C1665      C1666   1.404       .  A
C1665      S1671   1.712       .  A
C1666      C1667   1.405       .  A
C1666      H1677   1.083       .  S
C1667      C1676   1.374       .  A
C1667      C1668   1.387       .  A
C1668      C1669   1.404       .  A
C1668      S1674   1.710       .  A
C1669      C1670   1.405       .  A
C1669      H1678   1.083       .  S
C1670      C1673   1.374       .  A
S1671      C1672   1.724       .  A
C1672      C1673   1.390       .  A
C1673      H1679   1.083       .  S
S1674      C1675   1.725       .  A
C1675      C1676   1.387       .  A
C1676      H1680   1.083       .  S
C1681      C1686   1.387       .  A
C1681      C1682   1.406       .  A
C1681      S1687   1.705       .  A
C1682      C1683   1.404       .  A
C1682      H1693   1.083       .  S
C1683      C1692   1.379       .  A
C1683      C1684   1.387       .  A
C1684      C1685   1.406       .  A
C1684      S1690   1.706       .  A
C1685      C1686   1.405       .  A
C1685      H1694   1.083       .  S
C1686      C1689   1.380       .  A
S1687      C1688   1.727       .  A
C1688      C1689   1.389       .  A
C1689      H1695   1.083       .  S
S1690      C1691   1.726       .  A
C1691      C1692   1.388       .  A
C1692      H1696   1.083       .  S
C1697      C1702   1.387       .  A
C1697      C1698   1.404       .  A
C1697      S1703   1.710       .  A
C1698      C1699   1.405       .  A
C1698      H1709   1.083       .  S
C1699      C1708   1.376       .  A
C1699      C1700   1.387       .  A
C1700      C1701   1.406       .  A
C1700      S1706   1.711       .  A
C1701      C1702   1.406       .  A
C1701      H1710   1.083       .  S
C1702      C1705   1.376       .  A
S1703      C1704   1.724       .  A
C1704      C1705   1.389       .  A
C1705      H1711   1.083       .  S
S1706      C1707   1.725       .  A
C1707      C1708   1.389       .  A
C1708      H1712   1.083       .  S
C1713      C1718   1.387       .  A
C1713      C1714   1.401       .  A
C1713      S1719   1.711       .  A
C1714      C1715   1.403       .  A
C1714      H1725   1.083       .  S
C1715      C1724   1.368       .  A
C1715      C1716   1.386       .  A
C1716      C1717   1.402       .  A
C1716      S1722   1.713       .  A
C1717      C1718   1.404       .  A
C1717      H1726   1.083       .  S
C1718      C1721   1.369       .  A
S1719      C1720   1.720       .  A
C1720      C1721   1.387       .  A
C1721      H1727   1.083       .  S
S1722      C1723   1.721       .  A
C1723      C1724   1.388       .  A
C1724      H1728   1.083       .  S
C1729      C1734   1.387   1_554  A
C1729      C1730   1.406       .  A
C1729      S1735   1.709   1_554  A
C1730      C1731   1.405       .  A
C1730      H1741   1.083       .  S
C1731      C1740   1.376       .  A
C1731      C1732   1.387       .  A
C1732      C1733   1.400       .  A
C1732      S1738   1.702       .  A
C1733      C1734   1.400   1_554  A
C1733      H1742   1.083   1_554  S
C1734      C1737   1.371       .  A
S1735      C1736   1.726       .  A
C1736      C1737   1.384       .  A
C1737      H1743   1.083       .  S
S1738      C1739   1.723       .  A
C1739      C1740   1.389       .  A
C1740      H1744   1.083       .  S
C1745      C1750   1.387       .  A
C1745      C1746   1.404       .  A
C1745      S1751   1.709       .  A
C1746      C1747   1.404       .  A
C1746      H1757   1.083       .  S
C1747      C1756   1.376       .  A
C1747      C1748   1.386       .  A
C1748      C1749   1.407       .  A
C1748      S1754   1.712   1_554  A
C1749      C1750   1.407       .  A
C1749      H1758   1.083       .  S
C1750      C1753   1.378       .  A
S1751      C1752   1.724       .  A
C1752      C1753   1.390       .  A
C1753      H1759   1.083       .  S
S1754      C1755   1.727       .  A
C1755      C1756   1.388   1_556  A
C1756      H1760   1.083       .  S
C1761      C1766   1.386       .  A
C1761      C1762   1.404       .  A
C1761      S1767   1.712       .  A
C1762      C1763   1.406       .  A
C1762      H1773   1.083       .  S
C1763      C1772   1.374       .  A
C1763      C1764   1.387   1_554  A
C1764      C1765   1.402       .  A
C1764      S1770   1.708       .  A
C1765      C1766   1.403   1_556  A
C1765      H1774   1.083       .  S
C1766      C1769   1.371       .  A
S1767      C1768   1.723       .  A
C1768      C1769   1.387       .  A
C1769      H1775   1.083       .  S
S1770      C1771   1.724       .  A
C1771      C1772   1.389   1_556  A
C1772      H1776   1.083   1_545  S
C1777      C1782   1.387       .  A
C1777      C1778   1.404       .  A
C1777      S1783   1.708       .  A
C1778      C1779   1.404       .  A
C1778      H1789   1.083       .  S
C1779      C1788   1.373       .  A
C1779      C1780   1.387   1_554  A
C1780      C1781   1.402       .  A
C1780      S1786   1.708       .  A
C1781      C1782   1.403   1_556  A
C1781      H1790   1.083       .  S
C1782      C1785   1.373   1_545  A
S1783      C1784   1.725   1_545  A
C1784      C1785   1.387       .  A
C1785      H1791   1.083       .  S
S1786      C1787   1.722       .  A
C1787      C1788   1.387   1_556  A
C1788      H1792   1.083       .  S
C1793      C1798   1.387   1_556  A
C1793      C1794   1.401       .  A
C1793      S1799   1.701       .  A
C1794      C1795   1.400   1_556  A
C1794      H1805   1.083       .  S
C1795      C1804   1.372       .  A
C1795      C1796   1.388       .  A
C1796      C1797   1.402       .  A
C1796      S1802   1.703       .  A
C1797      C1798   1.402       .  A
C1797      H1806   1.083       .  S
C1798      C1801   1.374       .  A
S1799      C1800   1.724       .  A
C1800      C1801   1.386   1_556  A
C1801      H1807   1.083       .  S
S1802      C1803   1.723       .  A
C1803      C1804   1.383       .  A
C1804      H1808   1.083   1_554  S
C1809      C1814   1.387       .  A
C1809      C1810   1.402       .  A
C1809      S1815   1.706       .  A
C1810      C1811   1.402       .  A
C1810      H1821   1.083       .  S
C1811      C1820   1.372       .  A
C1811      C1812   1.387       .  A
C1812      C1813   1.406       .  A
C1812      S1818   1.712       .  A
C1813      C1814   1.406       .  A
C1813      H1822   1.083       .  S
C1814      C1817   1.377       .  A
S1815      C1816   1.724       .  A
C1816      C1817   1.389       .  A
C1817      H1823   1.083       .  S
S1818      C1819   1.725       .  A
C1819      C1820   1.386       .  A
C1820      H1824   1.083       .  S
C1825      C1830   1.387       .  A
C1825      C1826   1.403       .  A
C1825      S1831   1.708       .  A
C1826      C1827   1.404       .  A
C1826      H1837   1.083       .  S
C1827      C1836   1.374       .  A
C1827      C1828   1.387       .  A
C1828      C1829   1.405       .  A
C1828      S1834   1.710       .  A
C1829      C1830   1.405       .  A
C1829      H1838   1.083       .  S
C1830      C1833   1.376       .  A
S1831      C1832   1.724       .  A
C1832      C1833   1.389       .  A
C1833      H1839   1.083       .  S
S1834      C1835   1.725       .  A
C1835      C1836   1.387       .  A
C1836      H1840   1.083       .  S
C1841      C1846   1.387       .  A
C1841      C1842   1.403       .  A
C1841      S1847   1.704       .  A
C1842      C1843   1.403       .  A
C1842      H1853   1.083       .  S
C1843      C1852   1.375       .  A
C1843      C1844   1.388       .  A
C1844      C1845   1.401       .  A
C1844      S1850   1.701       .  A
C1845      C1846   1.400       .  A
C1845      H1854   1.083       .  S
C1846      C1849   1.373       .  A
S1847      C1848   1.725       .  A
C1848      C1849   1.384       .  A
C1849      H1855   1.083       .  S
S1850      C1851   1.723       .  A
C1851      C1852   1.385       .  A
C1852      H1856   1.083       .  S
C1857      C1862   1.387       .  A
C1857      C1858   1.401       .  A
C1857      S1863   1.704       .  A
C1858      C1859   1.402       .  A
C1858      H1869   1.083       .  S
C1859      C1868   1.371   1_545  A
C1859      C1860   1.387       .  A
C1860      C1861   1.402       .  A
C1860      S1866   1.705       .  A
C1861      C1862   1.402       .  A
C1861      H1870   1.083       .  S
C1862      C1865   1.372       .  A
S1863      C1864   1.724       .  A
C1864      C1865   1.385       .  A
C1865      H1871   1.083       .  S
S1866      C1867   1.724   1_545  A
C1867      C1868   1.386       .  A
C1868      H1872   1.083       .  S
C1873      C1878   1.387       .  A
C1873      C1874   1.402       .  A
C1873      S1879   1.706       .  A
C1874      C1875   1.402       .  A
C1874      H1885   1.083       .  S
C1875      C1884   1.372       .  A
C1875      C1876   1.387       .  A
C1876      C1877   1.405       .  A
C1876      S1882   1.709       .  A
C1877      C1878   1.405       .  A
C1877      H1886   1.083       .  S
C1878      C1881   1.375       .  A
S1879      C1880   1.723       .  A
C1880      C1881   1.388       .  A
C1881      H1887   1.083       .  S
S1882      C1883   1.726       .  A
C1883      C1884   1.387       .  A
C1884      H1888   1.083       .  S
C1889      C1894   1.386       .  A
C1889      C1890   1.404       .  A
C1889      S1895   1.714       .  A
C1890      C1891   1.406       .  A
C1890      H1901   1.083       .  S
C1891      C1900   1.371       .  A
C1891      C1892   1.386       .  A
C1892      C1893   1.402       .  A
C1892      S1898   1.711       .  A
C1893      C1894   1.404       .  A
C1893      H1902   1.083       .  S
C1894      C1897   1.369       .  A
S1895      C1896   1.724       .  A
C1896      C1897   1.388       .  A
C1897      H1903   1.083       .  S
S1898      C1899   1.722       .  A
C1899      C1900   1.389       .  A
C1900      H1904   1.083       .  S
C1905      C1910   1.386       .  A
C1905      C1906   1.409       .  A
C1905      S1911   1.716       .  A
C1906      C1907   1.409       .  A
C1906      H1917   1.083       .  S
C1907      C1916   1.381       .  A
C1907      C1908   1.387       .  A
C1908      C1909   1.403       .  A
C1908      S1914   1.707       .  A
C1909      C1910   1.403       .  A
C1909      H1918   1.083       .  S
C1910      C1913   1.374       .  A
S1911      C1912   1.727       .  A
C1912      C1913   1.388       .  A
C1913      H1919   1.083       .  S
S1914      C1915   1.724       .  A
C1915      C1916   1.392       .  A
C1916      H1920   1.083       .  S
C1921      C1926   1.387       .  A
C1921      C1922   1.400   1_565  A
C1921      S1927   1.709       .  A
C1922      C1923   1.402   1_545  A
C1922      H1933   1.083       .  S
C1923      C1932   1.367       .  A
C1923      C1924   1.387       .  A
C1924      C1925   1.401       .  A
C1924      S1930   1.710       .  A
C1925      C1926   1.403       .  A
C1925      H1934   1.083       .  S
C1926      C1929   1.368       .  A
S1927      C1928   1.721       .  A
C1928      C1929   1.388       .  A
C1929      H1935   1.083       .  S
S1930      C1931   1.720       .  A
C1931      C1932   1.384       .  A
C1932      H1936   1.083   1_565  S
C1937      C1942   1.386       .  A
C1937      C1938   1.406       .  A
C1937      S1943   1.710       .  A
C1938      C1939   1.405       .  A
C1938      H1949   1.083       .  S
C1939      C1948   1.377       .  A
C1939      C1940   1.386       .  A
C1940      C1941   1.407       .  A
C1940      S1946   1.712       .  A
C1941      C1942   1.407       .  A
C1941      H1950   1.083       .  S
C1942      C1945   1.379       .  A
S1943      C1944   1.726       .  A
C1944      C1945   1.390       .  A
C1945      H1951   1.083       .  S
S1946      C1947   1.726       .  A
C1947      C1948   1.390       .  A
C1948      H1952   1.083       .  S
C1953      C1958   1.386       .  A
C1953      C1954   1.404       .  A
C1953      S1959   1.715       .  A
C1954      C1955   1.406       .  A
C1954      H1965   1.083       .  S
C1955      C1964   1.371       .  A
C1955      C1956   1.386       .  A
C1956      C1957   1.402       .  A
C1956      S1962   1.712       .  A
C1957      C1958   1.405       .  A
C1957      H1966   1.083       .  S
C1958      C1961   1.370       .  A
S1959      C1960   1.724       .  A
C1960      C1961   1.389       .  A
C1961      H1967   1.083       .  S
S1962      C1963   1.722       .  A
C1963      C1964   1.389       .  A
C1964      H1968   1.083       .  S
C1969      C1974   1.386       .  A
C1969      C1970   1.405       .  A
C1969      S1975   1.711       .  A
C1970      C1971   1.405       .  A
C1970      H1981   1.083       .  S
C1971      C1980   1.376       .  A
C1971      C1972   1.386       .  A
C1972      C1973   1.407       .  A
C1972      S1978   1.714       .  A
C1973      C1974   1.407       .  A
C1973      H1982   1.083       .  S
C1974      C1977   1.377       .  A
S1975      C1976   1.725       .  A
C1976      C1977   1.390       .  A
C1977      H1983   1.083       .  S
S1978      C1979   1.726       .  A
C1979      C1980   1.390       .  A
C1980      H1984   1.083       .  S
C1985      C1990   1.387       .  A
C1985      C1986   1.402       .  A
C1985      S1991   1.702       .  A
C1986      C1987   1.401       .  A
C1986      H1997   1.083       .  S
C1987      C1996   1.374       .  A
C1987      C1988   1.387       .  A
C1988      C1989   1.407       .  A
C1988      S1994   1.709       .  A
C1989      C1990   1.406       .  A
C1989      H1998   1.083       .  S
C1990      C1993   1.379       .  A
S1991      C1992   1.725       .  A
C1992      C1993   1.389       .  A
C1993      H1999   1.083       .  S
S1994      C1995   1.727       .  A
C1995      C1996   1.386       .  A
C1996      H2000   1.083       .  S
C2001      C2006   1.386       .  A
C2001      C2002   1.404       .  A
C2001      S2007   1.713   1_545  A
C2002      C2003   1.405       .  A
C2002      H2013   1.083       .  S
C2003      C2012   1.372       .  A
C2003      C2004   1.386       .  A
C2004      C2005   1.402       .  A
C2004      S2010   1.709       .  A
C2005      C2006   1.403       .  A
C2005      H2014   1.083       .  S
C2006      C2009   1.370   1_545  A
S2007      C2008   1.724       .  A
C2008      C2009   1.388       .  A
C2009      H2015   1.083   1_565  S
S2010      C2011   1.723       .  A
C2011      C2012   1.389       .  A
C2012      H2016   1.082       .  S
C2017      C2022   1.386       .  A
C2017      C2018   1.407       .  A
C2017      S2023   1.712       .  A
C2018      C2019   1.407       .  A
C2018      H2029   1.083       .  S
C2019      C2028   1.379       .  A
C2019      C2020   1.386       .  A
C2020      C2021   1.406       .  A
C2020      S2026   1.710       .  A
C2021      C2022   1.406       .  A
C2021      H2030   1.083       .  S
C2022      C2025   1.378       .  A
S2023      C2024   1.726       .  A
C2024      C2025   1.390       .  A
C2025      H2031   1.083       .  S
S2026      C2027   1.726       .  A
C2027      C2028   1.390       .  A
C2028      H2032   1.083       .  S
C2033      C2038   1.386       .  A
C2033      C2034   1.406       .  A
C2033      S2039   1.711       .  A
C2034      C2035   1.406       .  A
C2034      H2045   1.083       .  S
C2035      C2044   1.378       .  A
C2035      C2036   1.386       .  A
C2036      C2037   1.407       .  A
C2036      S2042   1.711       .  A
C2037      C2038   1.407       .  A
C2037      H2046   1.083       .  S
C2038      C2041   1.379       .  A
S2039      C2040   1.726       .  A
C2040      C2041   1.391       .  A
C2041      H2047   1.083       .  S
S2042      C2043   1.727       .  A
C2043      C2044   1.390       .  A
C2044      H2048   1.083       .  S
C2049      C2054   1.387       .  A
C2049      C2050   1.404       .  A
C2049      S2055   1.705       .  A
C2050      C2051   1.403       .  A
C2050      H2061   1.083       .  S
C2051      C2060   1.375       .  A
C2051      C2052   1.387       .  A
C2052      C2053   1.403       .  A
C2052      S2058   1.704       .  A
C2053      C2054   1.402       .  A
C2053      H2062   1.083       .  S
C2054      C2057   1.375       .  A
S2055      C2056   1.726       .  A
C2056      C2057   1.386       .  A
C2057      H2063   1.083       .  S
S2058      C2059   1.726       .  A
C2059      C2060   1.388       .  A
C2060      H2064   1.083       .  S
C2065      C2070   1.387       .  A
C2065      C2066   1.405       .  A
C2065      S2071   1.709       .  A
C2066      C2067   1.405       .  A
C2066      H2077   1.083       .  S
C2067      C2076   1.376       .  A
C2067      C2068   1.386       .  A
C2068      C2069   1.404       .  A
C2068      S2074   1.709       .  A
C2069      C2070   1.404       .  A
C2069      H2078   1.083       .  S
C2070      C2073   1.375       .  A
S2071      C2072   1.724       .  A
C2072      C2073   1.387       .  A
C2073      H2079   1.083       .  S
S2074      C2075   1.726       .  A
C2075      C2076   1.389       .  A
C2076      H2080   1.083       .  S
C2081      C2086   1.386       .  A
C2081      C2082   1.405       .  A
C2081      S2087   1.709       .  A
C2082      C2083   1.405       .  A
C2082      H2093   1.083       .  S
C2083      C2092   1.377       .  A
C2083      C2084   1.387       .  A
C2084      C2085   1.406       .  A
C2084      S2090   1.710       .  A
C2085      C2086   1.406       .  A
C2085      H2094   1.083       .  S
C2086      C2089   1.377       .  A
S2087      C2088   1.726       .  A
C2088      C2089   1.390       .  A
C2089      H2095   1.082       .  S
S2090      C2091   1.725       .  A
C2091      C2092   1.387       .  A
C2092      H2096   1.083       .  S
C2097      C2102   1.386       .  A
C2097      C2098   1.404       .  A
C2097      S2103   1.715       .  A
C2098      C2099   1.407       .  A
C2098      H2109   1.083       .  S
C2099      C2108   1.371       .  A
C2099      C2100   1.386       .  A
C2100      C2101   1.402       .  A
C2100      S2106   1.713       .  A
C2101      C2102   1.404       .  A
C2101      H2110   1.083       .  S
C2102      C2105   1.368       .  A
S2103      C2104   1.723       .  A
C2104      C2105   1.389       .  A
C2105      H2111   1.083       .  S
S2106      C2107   1.722       .  A
C2107      C2108   1.390       .  A
C2108      H2112   1.083       .  S
C2113      C2118   1.387       .  A
C2113      C2114   1.401       .  A
C2113      S2119   1.709       .  A
C2114      C2115   1.403       .  A
C2114      H2125   1.083       .  S
C2115      C2124   1.368       .  A
C2115      C2116   1.387       .  A
C2116      C2117   1.402       .  A
C2116      S2122   1.711       .  A
C2117      C2118   1.404       .  A
C2117      H2126   1.083       .  S
C2118      C2121   1.369       .  A
S2119      C2120   1.721       .  A
C2120      C2121   1.388       .  A
C2121      H2127   1.083       .  S
S2122      C2123   1.722       .  A
C2123      C2124   1.387       .  A
C2124      H2128   1.083       .  S
C2129      C2134   1.386       .  A
C2129      C2130   1.405       .  A
C2129      S2135   1.708       .  A
C2130      C2131   1.405       .  A
C2130      H2141   1.083       .  S
C2131      C2140   1.376       .  A
C2131      C2132   1.387       .  A
C2132      C2133   1.403   1_455  A
C2132      S2138   1.708       .  A
C2133      C2134   1.403   1_655  A
C2133      H2142   1.083       .  S
C2134      C2137   1.374   1_455  A
S2135      C2136   1.725   1_455  A
C2136      C2137   1.388       .  A
C2137      H2143   1.083       .  S
S2138      C2139   1.723       .  A
C2139      C2140   1.388       .  A
C2140      H2144   1.083       .  S
C2145      C2150   1.387   1_455  A
C2145      C2146   1.404       .  A
C2145      S2151   1.709       .  A
C2146      C2147   1.404       .  A
C2146      H2157   1.083       .  S
C2147      C2156   1.375       .  A
C2147      C2148   1.387       .  A
C2148      C2149   1.401   1_455  A
C2148      S2154   1.704       .  A
C2149      C2150   1.401       .  A
C2149      H2158   1.083       .  S
C2150      C2153   1.371       .  A
S2151      C2152   1.724   1_455  A
C2152      C2153   1.385       .  A
C2153      H2159   1.083       .  S
S2154      C2155   1.723       .  A
C2155      C2156   1.388       .  A
C2156      H2160   1.083       .  S
C2161      C2166   1.387       .  A
C2161      C2162   1.403       .  A
C2161      S2167   1.705       .  A
C2162      C2163   1.402       .  A
C2162      H2173   1.083       .  S
C2163      C2172   1.374       .  A
C2163      C2164   1.388       .  A
C2164      C2165   1.402       .  A
C2164      S2170   1.703       .  A
C2165      C2166   1.401       .  A
C2165      H2174   1.083       .  S
C2166      C2169   1.373       .  A
S2167      C2168   1.723       .  A
C2168      C2169   1.385       .  A
C2169      H2175   1.083       .  S
S2170      C2171   1.724       .  A
C2171      C2172   1.385       .  A
C2172      H2176   1.083       .  S
C2177      C2182   1.387       .  A
C2177      C2178   1.401   1_455  A
C2177      S2183   1.709       .  A
C2178      C2179   1.403   1_655  A
C2178      H2189   1.083       .  S
C2179      C2188   1.367   1_455  A
C2179      C2180   1.387       .  A
C2180      C2181   1.400       .  A
C2180      S2186   1.709       .  A
C2181      C2182   1.402       .  A
C2181      H2190   1.083       .  S
C2182      C2185   1.366       .  A
S2183      C2184   1.722       .  A
C2184      C2185   1.386       .  A
C2185      H2191   1.083       .  S
S2186      C2187   1.720       .  A
C2187      C2188   1.386   1_455  A
C2188      H2192   1.083       .  S
C2193      C2198   1.386       .  A
C2193      C2194   1.407       .  A
C2193      S2199   1.714       .  A
C2194      C2195   1.407       .  A
C2194      H2205   1.083       .  S
C2195      C2204   1.377       .  A
C2195      C2196   1.387       .  A
C2196      C2197   1.402       .  A
C2196      S2202   1.707       .  A
C2197      C2198   1.402       .  A
C2197      H2206   1.083       .  S
C2198      C2201   1.372       .  A
S2199      C2200   1.726       .  A
C2200      C2201   1.387       .  A
C2201      H2207   1.083       .  S
S2202      C2203   1.723       .  A
C2203      C2204   1.390       .  A
C2204      H2208   1.083       .  S
C2209      C2214   1.386       .  A
C2209      C2210   1.403       .  A
C2209      S2215   1.714       .  A
C2210      C2211   1.405       .  A
C2210      H2221   1.083       .  S
C2211      C2220   1.369       .  A
C2211      C2212   1.387       .  A
C2212      C2213   1.401       .  A
C2212      S2218   1.711       .  A
C2213      C2214   1.404       .  A
C2213      H2222   1.083       .  S
C2214      C2217   1.367       .  A
S2215      C2216   1.723       .  A
C2216      C2217   1.389       .  A
C2217      H2223   1.083       .  S
S2218      C2219   1.720       .  A
C2219      C2220   1.387       .  A
C2220      H2224   1.083       .  S
C2225      C2230   1.386       .  A
C2225      C2226   1.404       .  A
C2225      S2231   1.710       .  A
C2226      C2227   1.405       .  A
C2226      H2237   1.083       .  S
C2227      C2236   1.375       .  A
C2227      C2228   1.387       .  A
C2228      C2229   1.404       .  A
C2228      S2234   1.709       .  A
C2229      C2230   1.404       .  A
C2229      H2238   1.083       .  S
C2230      C2233   1.374       .  A
S2231      C2232   1.725       .  A
C2232      C2233   1.388       .  A
C2233      H2239   1.083       .  S
S2234      C2235   1.725       .  A
C2235      C2236   1.389       .  A
C2236      H2240   1.083       .  S
C2241      C2246   1.386       .  A
C2241      C2242   1.399       .  A
C2241      S2247   1.708       .  A
C2242      C2243   1.402       .  A
C2242      H2253   1.083       .  S
C2243      C2252   1.365       .  A
C2243      C2244   1.386       .  A
C2244      C2245   1.403       .  A
C2244      S2250   1.714       .  A
C2245      C2246   1.406       .  A
C2245      H2254   1.083       .  S
C2246      C2249   1.370       .  A
S2247      C2248   1.721       .  A
C2248      C2249   1.389       .  A
C2249      H2255   1.083       .  S
S2250      C2251   1.724       .  A
C2251      C2252   1.387       .  A
C2252      H2256   1.083       .  S
C2257      C2262   1.387       .  A
C2257      C2258   1.404       .  A
C2257      S2263   1.705       .  A
C2258      C2259   1.403       .  A
C2258      H2269   1.083       .  S
C2259      C2268   1.377       .  A
C2259      C2260   1.387       .  A
C2260      C2261   1.402       .  A
C2260      S2266   1.702       .  A
C2261      C2262   1.401       .  A
C2261      H2270   1.083       .  S
C2262      C2265   1.374       .  A
S2263      C2264   1.726       .  A
C2264      C2265   1.385       .  A
C2265      H2271   1.083       .  S
S2266      C2267   1.724       .  A
C2267      C2268   1.387       .  A
C2268      H2272   1.083       .  S
C2273      C2278   1.386       .  A
C2273      C2274   1.404       .  A
C2273      S2279   1.711   1_545  A
C2274      C2275   1.405       .  A
C2274      H2285   1.083   1_545  S
C2275      C2284   1.374       .  A
C2275      C2276   1.387       .  A
C2276      C2277   1.405       .  A
C2276      S2282   1.711       .  A
C2277      C2278   1.405       .  A
C2277      H2286   1.083       .  S
C2278      C2281   1.374       .  A
S2279      C2280   1.724   1_565  A
C2280      C2281   1.389       .  A
C2281      H2287   1.083       .  S
S2282      C2283   1.724       .  A
C2283      C2284   1.387       .  A
C2284      H2288   1.083       .  S
C2289      C2294   1.387       .  A
C2289      C2290   1.403       .  A
C2289      S2295   1.710   1_545  A
C2290      C2291   1.404       .  A
C2290      H2301   1.083   1_545  S
C2291      C2300   1.374       .  A
C2291      C2292   1.386       .  A
C2292      C2293   1.405       .  A
C2292      S2298   1.712       .  A
C2293      C2294   1.406       .  A
C2293      H2302   1.083       .  S
C2294      C2297   1.375       .  A
S2295      C2296   1.723       .  A
C2296      C2297   1.389   1_565  A
C2297      H2303   1.083       .  S
S2298      C2299   1.725       .  A
C2299      C2300   1.388       .  A
C2300      H2304   1.083       .  S
C2305      C2310   1.386       .  A
C2305      C2306   1.404       .  A
C2305      S2311   1.713       .  A
C2306      C2307   1.406       .  A
C2306      H2317   1.083       .  S
C2307      C2316   1.371       .  A
C2307      C2308   1.387       .  A
C2308      C2309   1.399       .  A
C2308      S2314   1.707       .  A
C2309      C2310   1.401       .  A
C2309      H2318   1.083   1_545  S
C2310      C2313   1.367       .  A
S2311      C2312   1.724       .  A
C2312      C2313   1.386       .  A
C2313      H2319   1.083   1_545  S
S2314      C2315   1.720       .  A
C2315      C2316   1.389       .  A
C2316      H2320   1.083       .  S
C2321      C2326   1.387       .  A
C2321      C2322   1.403       .  A
C2321      S2327   1.707       .  A
C2322      C2323   1.403       .  A
C2322      H2333   1.083       .  S
C2323      C2332   1.374       .  A
C2323      C2324   1.387       .  A
C2324      C2325   1.405       .  A
C2324      S2330   1.709       .  A
C2325      C2326   1.405       .  A
C2325      H2334   1.083       .  S
C2326      C2329   1.375       .  A
S2327      C2328   1.723       .  A
C2328      C2329   1.388       .  A
C2329      H2335   1.083       .  S
S2330      C2331   1.726       .  A
C2331      C2332   1.388       .  A
C2332      H2336   1.083       .  S
C2337      C2342   1.386       .  A
C2337      C2338   1.405       .  A
C2337      S2343   1.710       .  A
C2338      C2339   1.405       .  A
C2338      H2349   1.083       .  S
C2339      C2348   1.376       .  A
C2339      C2340   1.387       .  A
C2340      C2341   1.404       .  A
C2340      S2346   1.710       .  A
C2341      C2342   1.405       .  A
C2341      H2350   1.083       .  S
C2342      C2345   1.375       .  A
S2343      C2344   1.725       .  A
C2344      C2345   1.389       .  A
C2345      H2351   1.083       .  S
S2346      C2347   1.723       .  A
C2347      C2348   1.388       .  A
C2348      H2352   1.083       .  S
C2353      C2358   1.387       .  A
C2353      C2354   1.403       .  A
C2353      S2359   1.704       .  A
C2354      C2355   1.403       .  A
C2354      H2365   1.083       .  S
C2355      C2364   1.375       .  A
C2355      C2356   1.387       .  A
C2356      C2357   1.402       .  A
C2356      S2362   1.703       .  A
C2357      C2358   1.401       .  A
C2357      H2366   1.083       .  S
C2358      C2361   1.373       .  A
S2359      C2360   1.725       .  A
C2360      C2361   1.386       .  A
C2361      H2367   1.083       .  S
S2362      C2363   1.724       .  A
C2363      C2364   1.386       .  A
C2364      H2368   1.083       .  S
C2369      C2374   1.387       .  A
C2369      C2370   1.400       .  A
C2369      S2375   1.703       .  A
C2370      C2371   1.401       .  A
C2370      H2381   1.083       .  S
C2371      C2380   1.369       .  A
C2371      C2372   1.387       .  A
C2372      C2373   1.400       .  A
C2372      S2378   1.704       .  A
C2373      C2374   1.401       .  A
C2373      H2382   1.083       .  S
C2374      C2377   1.370       .  A
S2375      C2376   1.725       .  A
C2376      C2377   1.385       .  A
C2377      H2383   1.083       .  S
S2378      C2379   1.723       .  A
C2379      C2380   1.385       .  A
C2380      H2384   1.083       .  S
C2385      C2390   1.386       .  A
C2385      C2386   1.409       .  A
C2385      S2391   1.715       .  A
C2386      C2387   1.409       .  A
C2386      H2397   1.083       .  S
C2387      C2396   1.381       .  A
C2387      C2388   1.387       .  A
C2388      C2389   1.402       .  A
C2388      S2394   1.706       .  A
C2389      C2390   1.402       .  A
C2389      H2398   1.083       .  S
C2390      C2393   1.374       .  A
S2391      C2392   1.728       .  A
C2392      C2393   1.387       .  A
C2393      H2399   1.083       .  S
S2394      C2395   1.723       .  A
C2395      C2396   1.392       .  A
C2396      H2400   1.083       .  S
C2401      C2406   1.387       .  A
C2401      C2402   1.403       .  A
C2401      S2407   1.706       .  A
C2402      C2403   1.403       .  A
C2402      H2413   1.083       .  S
C2403      C2412   1.374       .  A
C2403      C2404   1.387       .  A
C2404      C2405   1.401       .  A
C2404      S2410   1.704       .  A
C2405      C2406   1.401       .  A
C2405      H2414   1.083       .  S
C2406      C2409   1.371       .  A
S2407      C2408   1.724       .  A
C2408      C2409   1.385       .  A
C2409      H2415   1.083       .  S
S2410      C2411   1.723       .  A
C2411      C2412   1.386       .  A
C2412      H2416   1.083       .  S
C2417      C2422   1.387       .  A
C2417      C2418   1.406       .  A
C2417      S2423   1.710       .  A
C2418      C2419   1.406       .  A
C2418      H2429   1.083       .  S
C2419      C2428   1.376       .  A
C2419      C2420   1.387       .  A
C2420      C2421   1.401       .  A
C2420      S2426   1.705       .  A
C2421      C2422   1.401       .  A
C2421      H2430   1.083       .  S
C2422      C2425   1.372       .  A
S2423      C2424   1.725       .  A
C2424      C2425   1.385       .  A
C2425      H2431   1.083       .  S
S2426      C2427   1.723       .  A
C2427      C2428   1.389       .  A
C2428      H2432   1.083       .  S
C2433      C2438   1.387       .  A
C2433      C2434   1.403       .  A
C2433      S2439   1.705       .  A
C2434      C2435   1.402       .  A
C2434      H2445   1.083       .  S
C2435      C2444   1.373       .  A
C2435      C2436   1.387       .  A
C2436      C2437   1.402       .  A
C2436      S2442   1.703       .  A
C2437      C2438   1.402       .  A
C2437      H2446   1.083       .  S
C2438      C2441   1.373       .  A
S2439      C2440   1.724       .  A
C2440      C2441   1.385       .  A
C2441      H2447   1.083       .  S
S2442      C2443   1.725       .  A
C2443      C2444   1.386       .  A
C2444      H2448   1.083       .  S
C2449      C2454   1.387       .  A
C2449      C2450   1.402       .  A
C2449      S2455   1.706       .  A
C2450      C2451   1.402       .  A
C2450      H2461   1.083       .  S
C2451      C2460   1.373       .  A
C2451      C2452   1.386       .  A
C2452      C2453   1.407       .  A
C2452      S2458   1.712       .  A
C2453      C2454   1.407       .  A
C2453      H2462   1.083       .  S
C2454      C2457   1.377       .  A
S2455      C2456   1.722       .  A
C2456      C2457   1.390       .  A
C2457      H2463   1.083       .  S
S2458      C2459   1.727       .  A
C2459      C2460   1.387       .  A
C2460      H2464   1.083       .  S
C2465      C2470   1.387       .  A
C2465      C2466   1.393       .  A
C2465      S2471   1.696       .  A
C2466      C2467   1.395       .  A
C2466      H2477   1.083       .  S
C2467      C2476   1.362       .  A
C2467      C2468   1.385       .  A
C2468      C2469   1.410       .  A
C2468      S2474   1.719       .  A
C2469      C2470   1.411       .  A
C2469      H2478   1.083       .  S
C2470      C2473   1.380       .  A
S2471      C2472   1.719       .  A
C2472      C2473   1.391       .  A
C2473      H2479   1.083       .  S
S2474      C2475   1.730       .  A
C2475      C2476   1.385       .  A
C2476      H2480   1.082       .  S
C2481      C2486   1.386       .  A
C2481      C2482   1.406       .  A
C2481      S2487   1.712       .  A
C2482      C2483   1.406       .  A
C2482      H2493   1.083       .  S
C2483      C2492   1.377       .  A
C2483      C2484   1.386       .  A
C2484      C2485   1.404       .  A
C2484      S2490   1.709       .  A
C2485      C2486   1.404       .  A
C2485      H2494   1.083       .  S
C2486      C2489   1.375       .  A
S2487      C2488   1.725       .  A
C2488      C2489   1.388       .  A
C2489      H2495   1.083       .  S
S2490      C2491   1.725       .  A
C2491      C2492   1.390       .  A
C2492      H2496   1.083       .  S
C2497      C2502   1.386       .  A
C2497      C2498   1.402       .  A
C2497      S2503   1.712       .  A
C2498      C2499   1.404       .  A
C2498      H2509   1.083       .  S
C2499      C2508   1.368       .  A
C2499      C2500   1.386       .  A
C2500      C2501   1.402       .  A
C2500      S2506   1.713       .  A
C2501      C2502   1.404       .  A
C2501      H2510   1.083       .  S
C2502      C2505   1.368       .  A
S2503      C2504   1.723       .  A
C2504      C2505   1.388       .  A
C2505      H2511   1.083       .  S
S2506      C2507   1.721       .  A
C2507      C2508   1.387       .  A
C2508      H2512   1.083       .  S
C2513      C2518   1.386       .  A
C2513      C2514   1.404       .  A
C2513      S2519   1.713       .  A
C2514      C2515   1.406       .  A
C2514      H2525   1.083       .  S
C2515      C2524   1.372       .  A
C2515      C2516   1.386       .  A
C2516      C2517   1.400       .  A
C2516      S2522   1.708       .  A
C2517      C2518   1.402       .  A
C2517      H2526   1.083       .  S
C2518      C2521   1.368       .  A
S2519      C2520   1.725       .  A
C2520      C2521   1.388       .  A
C2521      H2527   1.082       .  S
S2522      C2523   1.723       .  A
C2523      C2524   1.390       .  A
C2524      H2528   1.082       .  S
C2529      C2534   1.386       .  A
C2529      C2530   1.409       .  A
C2529      S2535   1.716       .  A
C2530      C2531   1.410       .  A
C2530      H2541   1.082       .  S
C2531      C2540   1.380       .  A
C2531      C2532   1.386       .  A
C2532      C2533   1.403       .  A
C2532      S2538   1.708       .  A
C2533      C2534   1.403       .  A
C2533      H2542   1.083       .  S
C2534      C2537   1.373       .  A
S2535      C2536   1.727       .  A
C2536      C2537   1.388       .  A
C2537      H2543   1.083       .  S
S2538      C2539   1.724       .  A
C2539      C2540   1.392       .  A
C2540      H2544   1.083       .  S
C2545      C2550   1.386       .  A
C2545      C2546   1.404       .  A
C2545      S2551   1.710       .  A
C2546      C2547   1.405       .  A
C2546      H2557   1.083       .  S
C2547      C2556   1.374       .  A
C2547      C2548   1.386       .  A
C2548      C2549   1.407       .  A
C2548      S2554   1.715       .  A
C2549      C2550   1.408       .  A
C2549      H2558   1.082       .  S
C2550      C2553   1.378       .  A
S2551      C2552   1.725       .  A
C2552      C2553   1.391       .  A
C2553      H2559   1.083       .  S
S2554      C2555   1.726       .  A
C2555      C2556   1.389       .  A
C2556      H2560   1.083       .  S
C2561      C2566   1.386       .  A
C2561      C2562   1.402       .  A
C2561      S2567   1.712       .  A
C2562      C2563   1.404       .  A
C2562      H2573   1.083       .  S
C2563      C2572   1.369       .  A
C2563      C2564   1.387       .  A
C2564      C2565   1.402       .  A
C2564      S2570   1.712       .  A
C2565      C2566   1.404       .  A
C2565      H2574   1.083       .  S
C2566      C2569   1.369       .  A
S2567      C2568   1.722       .  A
C2568      C2569   1.389       .  A
C2569      H2575   1.083       .  S
S2570      C2571   1.721       .  A
C2571      C2572   1.386       .  A
C2572      H2576   1.083       .  S
C2577      C2582   1.386       .  A
C2577      C2578   1.408       .  A
C2577      S2583   1.715       .  A
C2578      C2579   1.409       .  A
C2578      H2589   1.083       .  S
C2579      C2588   1.379       .  A
C2579      C2580   1.387       .  A
C2580      C2581   1.402       .  A
C2580      S2586   1.707       .  A
C2581      C2582   1.402       .  A
C2581      H2590   1.083       .  S
C2582      C2585   1.373       .  A
S2583      C2584   1.727       .  A
C2584      C2585   1.387       .  A
C2585      H2591   1.083       .  S
S2586      C2587   1.722       .  A
C2587      C2588   1.391       .  A
C2588      H2592   1.083       .  S
C2593      C2598   1.387       .  A
C2593      C2594   1.404       .  A
C2593      S2599   1.710       .  A
C2594      C2595   1.404       .  A
C2594      H2605   1.083       .  S
C2595      C2604   1.375       .  A
C2595      C2596   1.386       .  A
C2596      C2597   1.407       .  A
C2596      S2602   1.713       .  A
C2597      C2598   1.407       .  A
C2597      H2606   1.083       .  S
C2598      C2601   1.378       .  A
S2599      C2600   1.723       .  A
C2600      C2601   1.390       .  A
C2601      H2607   1.083       .  S
S2602      C2603   1.727       .  A
C2603      C2604   1.389       .  A
C2604      H2608   1.083       .  S
C2609      C2614   1.386       .  A
C2609      C2610   1.403       .  A
C2609      S2615   1.712       .  A
C2610      C2611   1.405       .  A
C2610      H2621   1.083       .  S
C2611      C2620   1.371       .  A
C2611      C2612   1.386       .  A
C2612      C2613   1.402       .  A
C2612      S2618   1.711       .  A
C2613      C2614   1.404       .  A
C2613      H2622   1.083       .  S
C2614      C2617   1.370       .  A
S2615      C2616   1.723       .  A
C2616      C2617   1.388       .  A
C2617      H2623   1.083       .  S
S2618      C2619   1.722       .  A
C2619      C2620   1.389       .  A
C2620      H2624   1.083       .  S
C2625      C2630   1.386       .  A
C2625      C2626   1.403       .  A
C2625      S2631   1.713       .  A
C2626      C2627   1.405       .  A
C2626      H2637   1.083       .  S
C2627      C2636   1.371       .  A
C2627      C2628   1.386       .  A
C2628      C2629   1.402       .  A
C2628      S2634   1.711       .  A
C2629      C2630   1.404       .  A
C2629      H2638   1.083       .  S
C2630      C2633   1.370       .  A
S2631      C2632   1.722       .  A
C2632      C2633   1.388       .  A
C2633      H2639   1.083       .  S
S2634      C2635   1.722       .  A
C2635      C2636   1.389       .  A
C2636      H2640   1.083       .  S
C2641      C2646   1.386       .  A
C2641      C2642   1.405       .  A
C2641      S2647   1.709       .  A
C2642      C2643   1.405       .  A
C2642      H2653   1.083       .  S
C2643      C2652   1.378       .  A
C2643      C2644   1.387       .  A
C2644      C2645   1.407       .  A
C2644      S2650   1.711       .  A
C2645      C2646   1.407       .  A
C2645      H2654   1.083       .  S
C2646      C2649   1.379       .  A
S2647      C2648   1.725       .  A
C2648      C2649   1.390       .  A
C2649      H2655   1.083       .  S
S2650      C2651   1.726       .  A
C2651      C2652   1.388       .  A
C2652      H2656   1.083       .  S
C2657      C2662   1.387       .  A
C2657      C2658   1.404       .  A
C2657      S2663   1.710       .  A
C2658      C2659   1.404       .  A
C2658      H2669   1.083       .  S
C2659      C2668   1.374       .  A
C2659      C2660   1.386       .  A
C2660      C2661   1.405       .  A
C2660      S2666   1.711       .  A
C2661      C2662   1.406       .  A
C2661      H2670   1.083       .  S
C2662      C2665   1.375       .  A
S2663      C2664   1.723       .  A
C2664      C2665   1.388       .  A
C2665      H2671   1.083       .  S
S2666      C2667   1.726       .  A
C2667      C2668   1.389       .  A
C2668      H2672   1.083       .  S
C2673      C2678   1.386       .  A
C2673      C2674   1.401       .  A
C2673      S2679   1.711       .  A
C2674      C2675   1.404       .  A
C2674      H2685   1.083       .  S
C2675      C2684   1.368       .  A
C2675      C2676   1.386       .  A
C2676      C2677   1.402       .  A
C2676      S2682   1.712       .  A
C2677      C2678   1.404       .  A
C2677      H2686   1.083       .  S
C2678      C2681   1.369       .  A
S2679      C2680   1.722       .  A
C2680      C2681   1.388       .  A
C2681      H2687   1.083       .  S
S2682      C2683   1.722       .  A
C2683      C2684   1.388       .  A
C2684      H2688   1.083       .  S
C2689      C2694   1.387       .  A
C2689      C2690   1.402       .  A
C2689      S2695   1.704       .  A
C2690      C2691   1.402       .  A
C2690      H2701   1.083       .  S
C2691      C2700   1.374       .  A
C2691      C2692   1.387       .  A
C2692      C2693   1.403       .  A
C2692      S2698   1.704       .  A
C2693      C2694   1.403       .  A
C2693      H2702   1.083       .  S
C2694      C2697   1.375       .  A
S2695      C2696   1.723       .  A
C2696      C2697   1.386       .  A
C2697      H2703   1.083       .  S
S2698      C2699   1.725       .  A
C2699      C2700   1.385       .  A
C2700      H2704   1.083       .  S
C2705      C2710   1.387   1_554  A
C2705      C2706   1.405       .  A
C2705      S2711   1.711       .  A
C2706      C2707   1.405       .  A
C2706      H2717   1.083       .  S
C2707      C2716   1.376       .  A
C2707      C2708   1.386       .  A
C2708      C2709   1.405   1_554  A
C2708      S2714   1.711       .  A
C2709      C2710   1.405       .  A
C2709      H2718   1.083       .  S
C2710      C2713   1.376       .  A
S2711      C2712   1.724   1_554  A
C2712      C2713   1.387       .  A
C2713      H2719   1.083       .  S
S2714      C2715   1.726       .  A
C2715      C2716   1.390       .  A
C2716      H2720   1.083       .  S
C2721      C2726   1.387       .  A
C2721      C2722   1.404       .  A
C2721      S2727   1.703       .  A
C2722      C2723   1.403       .  A
C2722      H2733   1.083       .  S
C2723      C2732   1.377       .  A
C2723      C2724   1.387       .  A
C2724      C2725   1.406       .  A
C2724      S2730   1.706       .  A
C2725      C2726   1.404       .  A
C2725      H2734   1.083       .  S
C2726      C2729   1.379       .  A
S2727      C2728   1.727       .  A
C2728      C2729   1.388       .  A
C2729      H2735   1.083       .  S
S2730      C2731   1.727       .  A
C2731      C2732   1.387       .  A
C2732      H2736   1.083       .  S
C2737      C2742   1.387       .  A
C2737      C2738   1.402   1_554  A
C2737      S2743   1.707       .  A
C2738      C2739   1.403       .  A
C2738      H2749   1.083       .  S
C2739      C2748   1.373       .  A
C2739      C2740   1.387   1_556  A
C2740      C2741   1.405       .  A
C2740      S2746   1.710       .  A
C2741      C2742   1.405       .  A
C2741      H2750   1.083       .  S
C2742      C2745   1.375       .  A
S2743      C2744   1.723       .  A
C2744      C2745   1.389       .  A
C2745      H2751   1.083       .  S
S2746      C2747   1.726   1_554  A
C2747      C2748   1.387       .  A
C2748      H2752   1.083       .  S
C2753      C2758   1.386       .  A
C2753      C2754   1.404       .  A
C2753      S2759   1.714       .  A
C2754      C2755   1.407       .  A
C2754      H2765   1.083       .  S
C2755      C2764   1.372       .  A
C2755      C2756   1.386       .  A
C2756      C2757   1.400       .  A
C2756      S2762   1.709       .  A
C2757      C2758   1.402       .  A
C2757      H2766   1.083       .  S
C2758      C2761   1.368       .  A
S2759      C2760   1.724       .  A
C2760      C2761   1.387       .  A
C2761      H2767   1.083       .  S
S2762      C2763   1.721       .  A
C2763      C2764   1.390       .  A
C2764      H2768   1.083       .  S
C2769      C2774   1.387       .  A
C2769      C2770   1.404       .  A
C2769      S2775   1.706       .  A
C2770      C2771   1.403       .  A
C2770      H2781   1.083       .  S
C2771      C2780   1.376       .  A
C2771      C2772   1.387   1_554  A
C2772      C2773   1.401       .  A
C2772      S2778   1.700       .  A
C2773      C2774   1.400   1_556  A
C2773      H2782   1.083       .  S
C2774      C2777   1.372       .  A
S2775      C2776   1.724       .  A
C2776      C2777   1.384       .  A
C2777      H2783   1.083   1_554  S
S2778      C2779   1.724       .  A
C2779      C2780   1.387   1_556  A
C2780      H2784   1.083       .  S
