geometry optimzed in LAMMPS
_audit_creation_date              2020-11-30 
_audit_creation_method            'lammps2cif' 
_symmetry_space_group_name_H-M    'P1' 
_symmetry_Int_Tables_number       1 
_symmetry_cell_setting            triclinic 
loop_ 
_symmetry_equiv_pos_as_xyz 
  x,y,z 
_cell_length_a                    26.95792574 
_cell_length_b                    26.83186369411495 
_cell_length_c                    33.76989891549328 
_cell_angle_alpha                 89.84059339626918 
_cell_angle_beta                  89.88949248253329 
_cell_angle_gamma                 90.09360062106607 
loop_ 
_atom_site_label 
_atom_site_type_symbol 
_atom_site_fract_x 
_atom_site_fract_y 
_atom_site_fract_z 
_atom_site_charge 
C1          C  0.76292150  0.71656759  0.99692034     0.79900
N2          N  0.74624929  0.69876392  0.29507386    -0.78400
C3          C  0.70874911  0.66486886  0.29415968     0.82300
N4          N  0.68919562  0.64729413  0.32859585    -0.78300
C5          C  0.70647640  0.66431064  0.03049480     0.82400
N6          N  0.74360842  0.69841819  0.03115919    -0.80100
C7          C  0.42758636  0.62436318  0.99649327     0.79900
N8          N  0.44513660  0.60531838  0.29540193    -0.78400
C9          C  0.47838055  0.56741521  0.29566352     0.82300
N10         N  0.49522305  0.54925728  0.33073923    -0.78300
C11         C  0.47831289  0.56862075  0.03203047     0.82400
N12         N  0.44516232  0.60671036  0.03145191    -0.80100
C13         C  0.85687272  0.38242106  0.99576874     0.79900
N14         N  0.83857371  0.39990989  0.03047832    -0.78400
C15         C  0.80362780  0.43625133  0.03055858     0.82300
N16         N  0.78611949  0.45442323  0.32903952    -0.78300
C17         C  0.80391432  0.43650986  0.29424941     0.82400
N18         N  0.83854230  0.39993093  0.29437085    -0.80100
N19         N  0.21585587  0.98908840  0.99647453    -0.36900
N20         N  0.15494017  0.07891541  0.00049791    -0.57500
N21         N  0.06607373  0.01700933  0.00710083    -0.36900
N22         N  0.12725929  0.92708397  0.99968226    -0.57500
C23         C  0.25092367  0.02396055  0.98910490     0.26700
C24         C  0.23631364  0.94393331  0.98970667     0.26700
C25         C  0.04512582  0.06236084  0.00173628     0.26700
C26         C  0.03047216  0.98220074  0.00115577     0.26700
C27         C  0.20019221  0.10051491  0.00185989     0.35300
C28         C  0.12142463  0.11534598  0.00701693     0.35300
C29         C  0.16176490  0.89089803  0.00328405     0.35300
C30         C  0.08287359  0.90553363  0.00688650     0.35300
C31         C  0.29453383  0.00058413  0.97769588    -0.22200
C32         C  0.28531929  0.95015091  0.97806293    -0.22200
C33         C  0.99509237  0.05624368  0.99336305    -0.22200
C34         C  0.98591139  0.00576920  0.99290005    -0.22200
C35         C  0.19539676  0.15119654  0.00878705    -0.23300
C36         C  0.14555769  0.16062511  0.01191365    -0.23300
C37         C  0.13907636  0.84587743  0.01241393    -0.23300
C38         C  0.08907804  0.85514048  0.01464704    -0.23300
C39         C  0.24568943  0.07596206  0.99470034    -0.18600
C40         C  0.21311176  0.89728029  0.99631508    -0.18600
C41         C  0.03657791  0.92985707  0.00407615    -0.18600
C42         C  0.06937179  0.10911530  0.00540315    -0.18600
H43         H  0.32971633  0.01790476  0.97053731     0.14300
H44         H  0.31205257  0.92135634  0.97125398     0.14300
H45         H  0.96783179  0.08507130  0.98815832     0.14300
H46         H  0.95034959  0.98844427  0.98722171     0.14300
H47         H  0.22466949  0.17874948  0.01062237     0.12600
H48         H  0.12912916  0.19691705  0.01650274     0.12600
H49         H  0.15658572  0.80997483  0.01655725     0.12600
H50         H  0.06052875  0.82782506  0.02097756     0.12600
H51         H  0.18094883  0.99558525  0.00786320     0.25800
H52         H  0.10212276  0.01019088  0.01590832     0.25800
C53         C  0.52275185  0.28409891  0.99709397     0.79900
N54         N  0.54017480  0.30275417  0.03168886    -0.78400
C55         C  0.57660477  0.33766206  0.03160411     0.82300
N56         N  0.59481894  0.35505598  0.33001276    -0.78300
C57         C  0.57691090  0.33708766  0.29528631     0.82400
N58         N  0.54035200  0.30225267  0.29562242    -0.80100
N59         N  0.65706034  0.61001621  0.20899677    -0.06400
N60         N  0.65097182  0.63934678  0.24006268    -0.58600
N61         N  0.70165767  0.59263103  0.11713315    -0.06100
N62         N  0.72703787  0.60971768  0.08663469    -0.60700
N63         N  0.65596058  0.60976739  0.11665158    -0.05700
N64         N  0.64908150  0.63850388  0.08520940    -0.58500
N65         N  0.70291869  0.59340645  0.20760475    -0.05400
N66         N  0.72922624  0.61164644  0.23706882    -0.61000
C67         C  0.69650141  0.64026755  0.25689478     0.95700
C68         C  0.69391207  0.63811145  0.06707132     0.95500
N69         N  0.73231906  0.44033043  0.11729637    -0.06600
N70         N  0.74989058  0.41465595  0.08718050    -0.59100
N71         N  0.74957579  0.48657164  0.20840589    -0.04700
N72         N  0.77840649  0.49357926  0.23954537    -0.60400
N73         N  0.73280438  0.44050556  0.20783181    -0.06700
N74         N  0.75037006  0.41492302  0.23801482    -0.59400
N75         N  0.74898641  0.48641763  0.11632503    -0.04400
N76         N  0.77774978  0.49333910  0.08500441    -0.60500
Mn77       Mn  0.72737499  0.54046832  0.16237246     1.18400
C78         C  0.77810105  0.44809985  0.06745067     0.97800
C79         C  0.77863999  0.44838638  0.25737581     0.98500
N80         N  0.54950721  0.56282062  0.11863387    -0.06700
N81         N  0.53170518  0.58903224  0.08885135    -0.63000
N82         N  0.53324712  0.51618807  0.21001609    -0.05500
N83         N  0.50416901  0.50954041  0.24126124    -0.63700
N84         N  0.55029089  0.56218848  0.20915531    -0.06200
N85         N  0.53264429  0.58798863  0.23916651    -0.63200
N86         N  0.53276636  0.51674801  0.11758843    -0.05100
N87         N  0.50373218  0.51044829  0.08641379    -0.63900
Mn88       Mn  0.60247874  0.58783446  0.16344082     1.10700
C89         C  0.50322622  0.55606803  0.06914398     0.99000
C90         C  0.50407163  0.55483812  0.25885767     0.99100
N91         N  0.62664709  0.39257342  0.20931559    -0.06200
N92         N  0.63361718  0.36334808  0.24043156    -0.61600
N93         N  0.58044835  0.40958122  0.11803404    -0.05500
N94         N  0.55499819  0.39182488  0.08790643    -0.58300
N95         N  0.62628974  0.39280293  0.11725230    -0.06800
N96         N  0.63324444  0.36386922  0.08609161    -0.61100
N97         N  0.58076989  0.40925321  0.20873032    -0.05800
N98         N  0.55534251  0.39122363  0.23890754    -0.58300
Mn99       Mn  0.68023151  0.41489787  0.16295685     1.20200
Mn100      Mn  0.55507606  0.46214744  0.16356762     1.10100
Cl101      Cl  0.64123519  0.50132368  0.16313358    -0.86300
C102        C  0.58863844  0.36271890  0.25826525     0.96000
C103        C  0.58831494  0.36349171  0.06838223     0.95800
C104        C  0.42426275  0.20298722  0.31008420     0.29400
C105        C  0.38930449  0.17838576  0.28638880    -0.36900
C106        C  0.35291392  0.15102710  0.30671397     0.15400
C107        C  0.35114142  0.14806092  0.01418380     0.21200
C108        C  0.38618272  0.17245077  0.03783558    -0.35000
C109        C  0.42247959  0.19982040  0.35087598     0.15300
O110        O  0.46035954  0.23217460  0.29742991    -0.27000
C111        C  0.48195047  0.24782677  0.99719510     0.05100
C112        C  0.46005196  0.22876060  0.03134896    -0.31900
O113        O  0.31347840  0.12121859  0.02703139    -0.23700
C114        C  0.29107819  0.10665638  0.99402469    -0.03700
C115        C  0.31372448  0.12409203  0.29304002    -0.18200
H116        H  0.39002151  0.18097205  0.25440373     0.19800
H117        H  0.38481845  0.17075373  0.06984545     0.18200
H118        H  0.46957683  0.23625013  0.06188766     0.18100
H119        H  0.30260834  0.11805146  0.26264921     0.14000
C120        C  0.99351407  0.21115166  0.31556896     0.29400
C121        C  0.96375785  0.24122392  0.29137161    -0.36900
C122        C  0.93987818  0.28093923  0.31024767     0.15400
C123        C  0.94501103  0.29056213  0.01684496     0.21200
C124        C  0.97576068  0.26120233  0.04088175    -0.35000
C125        C  0.99940246  0.22122662  0.02205090     0.15300
O126        O  0.01725839  0.17068280  0.30444402    -0.27000
C127        C  0.03857989  0.15461485  0.00423514     0.05100
C128        C  0.02916104  0.18471978  0.03682986    -0.31900
O129        O  0.91702374  0.32789233  0.02870732    -0.23700
C130        C  0.89387970  0.34244483  0.99591475    -0.03700
C131        C  0.90698820  0.31487544  0.29602270    -0.18200
H132        H  0.95857077  0.23341839  0.26022492     0.19800
H133        H  0.97985965  0.26819927  0.07225493     0.18200
H134        H  0.04183585  0.17985058  0.06698217     0.18100
H135        H  0.89302813  0.31829007  0.26610273     0.14000
C136        C  0.34693501  0.72394864  0.01547374     0.29400
C137        C  0.32071120  0.75829260  0.03867732    -0.36900
C138        C  0.29204288  0.79313120  0.01788409     0.15400
C139        C  0.28949566  0.79434801  0.97704268     0.21200
C140        C  0.31570603  0.76000043  0.95384138    -0.35000
C141        C  0.34419927  0.72501481  0.97465924     0.15300
O142        O  0.37627000  0.68831346  0.02868267    -0.27000
C143        C  0.39245527  0.66622658  0.99588311     0.05100
C144        C  0.37386558  0.68764474  0.29480834    -0.31900
O145        O  0.26101567  0.83064981  0.96382510    -0.23700
C146        C  0.24498557  0.85260551  0.99668817    -0.03700
C147        C  0.26306482  0.83102254  0.03115849    -0.18200
H148        H  0.32262921  0.75796801  0.07068669     0.20800
H149        H  0.31456580  0.76096154  0.25522372     0.18200
H150        H  0.38139227  0.67734587  0.26441817     0.18100
H151        H  0.25625738  0.84218544  0.06145460     0.14000
C152        C  0.86490562  0.79501501  0.31343665     0.29400
C153        C  0.90347818  0.81708045  0.29160972    -0.36900
C154        C  0.93540956  0.84837970  0.31289676     0.15400
C155        C  0.92971810  0.85756840  0.01955620     0.21200
C156        C  0.89133004  0.83530347  0.04140715    -0.35000
C157        C  0.85955250  0.80384069  0.02016360     0.15300
O158        O  0.83121129  0.76387180  0.29969826    -0.27000
C159        C  0.80413804  0.75241586  0.99811071     0.05100
C160        C  0.82006498  0.77618335  0.03238167    -0.31900
O161        O  0.96394530  0.88791466  0.03351591    -0.23700
C162        C  0.99186918  0.89814718  0.00205337    -0.03700
C163        C  0.97609876  0.87454306  0.30105015    -0.18200
H164        H  0.90843880  0.81007828  0.26030487     0.19800
H165        H  0.88676224  0.84178886  0.07282074     0.18200
H166        H  0.80502451  0.77308501  0.06203420     0.18100
H167        H  0.99257351  0.87624604  0.27182414     0.14000
C168        C  0.76289690  0.71655392  0.33022967     0.79900
N169        N  0.74632552  0.69873934  0.62841192    -0.78400
C170        C  0.70882040  0.66484844  0.62749783     0.82300
N171        N  0.68925657  0.64728673  0.66193515    -0.78300
C172        C  0.70646345  0.66429286  0.36381161     0.82400
N173        N  0.74359742  0.69839719  0.36447050    -0.80100
C174        C  0.42758035  0.62435030  0.32987012     0.79900
N175        N  0.44518811  0.60535405  0.62873477    -0.78400
C176        C  0.47842494  0.56744440  0.62900214     0.82300
N177        N  0.49525722  0.54928493  0.66407963    -0.78300
C178        C  0.47831591  0.56859485  0.36538495     0.82400
N179        N  0.44515884  0.60667884  0.36482122    -0.80100
C180        C  0.85686465  0.38239960  0.32907531     0.79900
N181        N  0.83855279  0.39987789  0.36378381    -0.78400
C182        C  0.80360599  0.43621710  0.36386476     0.82300
N183        N  0.78614295  0.45444710  0.66238251    -0.78300
C184        C  0.80394065  0.43653390  0.62759276     0.82400
N185        N  0.83857262  0.39995923  0.62771679    -0.80100
N186        N  0.21584001  0.98906337  0.32983398    -0.36900
N187        N  0.15493663  0.07890269  0.33379472    -0.57500
N188        N  0.06605040  0.01700987  0.34042781    -0.36900
N189        N  0.12722581  0.92707266  0.33306728    -0.57500
C190        C  0.25093168  0.02392377  0.32249900     0.26700
C191        C  0.23630652  0.94389610  0.32313277     0.26700
C192        C  0.04511160  0.06236268  0.33505439     0.26700
C193        C  0.03043987  0.98220748  0.33449487     0.26700
C194        C  0.20018762  0.10050616  0.33513686     0.35300
C195        C  0.12142140  0.11534426  0.34027199     0.35300
C196        C  0.16172068  0.89087465  0.33666142     0.35300
C197        C  0.08282671  0.90552515  0.34022602     0.35300
C198        C  0.29456620  0.00052854  0.31117684    -0.22200
C199        C  0.28534339  0.95009686  0.31156421    -0.22200
C200        C  0.99507590  0.05625742  0.32668947    -0.22200
C201        C  0.98588218  0.00578477  0.32624093    -0.22200
C202        C  0.19538908  0.15120150  0.34200495    -0.23300
C203        C  0.14554934  0.16063296  0.34512149    -0.23300
C204        C  0.13900907  0.84584811  0.34573828    -0.23300
C205        C  0.08901194  0.85512101  0.34794957    -0.23300
C206        C  0.24569134  0.07593567  0.32804009    -0.18600
C207        C  0.21307995  0.89724922  0.32973201    -0.18600
C208        C  0.03653679  0.92986208  0.33741184    -0.18600
C209        C  0.06937009  0.10911129  0.33868974    -0.18600
H210        H  0.32976844  0.01783749  0.30406219     0.14300
H211        H  0.31209378  0.92129461  0.30482025     0.14300
H212        H  0.96782867  0.08509488  0.32147103     0.14300
H213        H  0.95031606  0.98846675  0.32056639     0.14300
H214        H  0.22466126  0.17875741  0.34381980     0.12600
H215        H  0.12911040  0.19692696  0.34968336     0.12600
H216        H  0.15650062  0.80993295  0.34985880     0.12600
H217        H  0.06045092  0.82780325  0.35423923     0.12600
H218        H  0.18090257  0.99557874  0.34115052     0.25800
H219        H  0.10210123  0.01019060  0.34922770     0.25800
C220        C  0.52272156  0.28412374  0.33044708     0.79900
N221        N  0.54016514  0.30276643  0.36503949    -0.78400
C222        C  0.57660270  0.33766689  0.36494919     0.82300
N223        N  0.59487335  0.35504843  0.66334896    -0.78300
C224        C  0.57697043  0.33707413  0.62862357     0.82400
N225        N  0.54041518  0.30223649  0.62895953    -0.80100
N226        N  0.65711071  0.61001288  0.54232979    -0.06400
N227        N  0.65102942  0.63933442  0.57340274    -0.58600
N228        N  0.70167987  0.59261874  0.45045363    -0.06100
N229        N  0.72704778  0.60970080  0.41994699    -0.60700
N230        N  0.65598252  0.60975462  0.44998086    -0.05700
N231        N  0.64909010  0.63848503  0.41853749    -0.58500
N232        N  0.70296903  0.59340368  0.54092910    -0.05400
N233        N  0.72928268  0.61163507  0.57039375    -0.61000
C234        C  0.69656273  0.64025066  0.59023033     0.95700
C235        C  0.69391288  0.63808964  0.40038843     0.95500
N236        N  0.73234000  0.44031533  0.45062407    -0.06600
N237        N  0.74989255  0.41463595  0.42050394    -0.59100
N238        N  0.74961925  0.48657123  0.54173058    -0.04700
N239        N  0.77844150  0.49358865  0.57287404    -0.60400
N240        N  0.73284530  0.44050583  0.54116390    -0.06700
N241        N  0.75040094  0.41493378  0.57135665    -0.59400
N242        N  0.74900813  0.48640186  0.44964375    -0.04400
N243        N  0.77775424  0.49331744  0.41831186    -0.60500
Mn244      Mn  0.72741120  0.54046100  0.49569307     1.18400
C245        C  0.77809191  0.44807588  0.40076063     0.97800
C246        C  0.77866689  0.44840262  0.59071589     0.98500
N247        N  0.54953277  0.56280940  0.45197867    -0.06700
N248        N  0.53172722  0.58901407  0.42219354    -0.63000
N249        N  0.53329442  0.51619105  0.54336771    -0.05500
N250        N  0.50421621  0.50955239  0.57461379    -0.63700
N251        N  0.55033793  0.56219130  0.54249939    -0.06200
N252        N  0.53269075  0.58800066  0.57250494    -0.63200
N253        N  0.53279184  0.51673656  0.45093984    -0.05100
N254        N  0.50375427  0.51042943  0.41976802    -0.63900
Mn255      Mn  0.60251547  0.58782901  0.49677897     1.10700
C256        C  0.50324743  0.55604471  0.40249152     0.99000
C257        C  0.50411818  0.55485579  0.59220120     0.99100
N258        N  0.62669147  0.39257114  0.54265695    -0.06200
N259        N  0.63366636  0.36333908  0.57376765    -0.61600
N260        N  0.58047208  0.40957437  0.45138468    -0.05500
N261        N  0.55501496  0.39182332  0.42125907    -0.58300
N262        N  0.62631273  0.39279453  0.45059561    -0.06800
N263        N  0.63325952  0.36386458  0.41943120    -0.61100
N264        N  0.58081494  0.40925264  0.54207854    -0.05800
N265        N  0.55539186  0.39121774  0.57225551    -0.58300
Mn266      Mn  0.68026510  0.41489156  0.49629341     1.20200
Mn267      Mn  0.55511155  0.46214369  0.49691951     1.10100
Cl268      Cl  0.64127057  0.50131806  0.49647074    -0.86300
C269        C  0.58869070  0.36270824  0.59160505     0.96000
C270        C  0.58832589  0.36349154  0.40172758     0.95800
C271        C  0.42431572  0.20299432  0.64341745     0.29400
C272        C  0.38934851  0.17840860  0.61972095    -0.36900
C273        C  0.35295062  0.15106008  0.64004528     0.15400
C274        C  0.35113150  0.14805093  0.34753777     0.21200
C275        C  0.38616773  0.17244777  0.37119151    -0.35000
C276        C  0.42253439  0.19982216  0.68420909     0.15300
O277        O  0.46041806  0.23217435  0.63076473    -0.27000
C278        C  0.48191240  0.24786018  0.33055241     0.05100
C279        C  0.46002413  0.22878103  0.36470650    -0.31900
O280        O  0.31348242  0.12118446  0.36038171    -0.23700
C281        C  0.29108236  0.10662812  0.32737257    -0.03700
C282        C  0.31375393  0.12413737  0.62637060    -0.18200
H283        H  0.39006434  0.18099945  0.58773605     0.19800
H284        H  0.38481351  0.17073412  0.40320113     0.18200
H285        H  0.46956209  0.23625507  0.39524501     0.18100
H286        H  0.30263610  0.11810023  0.59597975     0.14000
C287        C  0.99351571  0.21116223  0.64891236     0.29400
C288        C  0.96372692  0.24121080  0.62472283    -0.36900
C289        C  0.93988045  0.28094951  0.64359372     0.15400
C290        C  0.94490529  0.29046394  0.35019854     0.21200
C291        C  0.97549963  0.26098300  0.37426799    -0.35000
C292        C  0.99928312  0.22111888  0.35540292     0.15300
O293        O  0.01723873  0.17067900  0.63779215    -0.27000
C294        C  0.03858744  0.15461103  0.33753385     0.05100
C295        C  0.02894812  0.18453932  0.37018817    -0.31900
O296        O  0.91682659  0.32771939  0.36206910    -0.23700
C297        C  0.89388865  0.34243747  0.32923028    -0.03700
C298        C  0.90697317  0.31487200  0.62937547    -0.18200
H299        H  0.95849194  0.23337116  0.59358679     0.19800
H300        H  0.97937944  0.26780803  0.40568343     0.18200
H301        H  0.04141573  0.17950688  0.40037918     0.18100
H302        H  0.89296913  0.31825322  0.59946628     0.14000
C303        C  0.34678738  0.72381581  0.34888539     0.29400
C304        C  0.32040513  0.75803044  0.37209916    -0.36900
C305        C  0.29185750  0.79297248  0.35130529     0.15400
C306        C  0.28957552  0.79440473  0.31045741     0.21200
C307        C  0.31593448  0.76018335  0.28724897    -0.35000
C308        C  0.34429911  0.72509330  0.30806402     0.15300
O309        O  0.37605996  0.68812292  0.36208809    -0.27000
C310        C  0.39244415  0.66621028  0.32927538     0.05100
C311        C  0.37389189  0.68766533  0.62813479    -0.31900
O312        O  0.26118677  0.83077638  0.29724006    -0.23700
C313        C  0.24493825  0.85256099  0.33010606    -0.03700
C314        C  0.26278880  0.83079508  0.36458297    -0.18200
H315        H  0.32212323  0.75753937  0.40411516     0.20800
H316        H  0.31455847  0.76095906  0.58855052     0.18200
H317        H  0.38139426  0.67734506  0.59774544     0.18100
H318        H  0.25578546  0.84180315  0.39488705     0.14000
C319        C  0.86496611  0.79501943  0.64677104     0.29400
C320        C  0.90353421  0.81709173  0.62494253    -0.36900
C321        C  0.93546238  0.84839718  0.64622778     0.15400
C322        C  0.92968730  0.85755511  0.35287778     0.21200
C323        C  0.89131226  0.83526770  0.37472769    -0.35000
C324        C  0.85953616  0.80381050  0.35347870     0.15300
O325        O  0.83127845  0.76386646  0.63303473    -0.27000
C326        C  0.80411720  0.75239734  0.33141877     0.05100
C327        C  0.82005378  0.77614651  0.36569427    -0.31900
O328        O  0.96391103  0.88790064  0.36684327    -0.23700
C329        C  0.99182207  0.89816135  0.33537944    -0.03700
C330        C  0.97615107  0.87456222  0.63438055    -0.18200
H331        H  0.90849578  0.81008765  0.59363807     0.19800
H332        H  0.88675092  0.84173514  0.40614426     0.18200
H333        H  0.80501995  0.77303513  0.39534815     0.18100
H334        H  0.99262595  0.87626420  0.60515453     0.14000
C335        C  0.76296878  0.71653716  0.66356732     0.79900
N336        N  0.74629113  0.69876639  0.96176275    -0.78400
C337        C  0.70879464  0.66486796  0.96084271     0.82300
N338        N  0.68922600  0.64730183  0.99527627    -0.78300
C339        C  0.70651955  0.66429240  0.69715107     0.82400
N340        N  0.74365872  0.69839207  0.69780872    -0.80100
C341        C  0.42762976  0.62439121  0.66320038     0.79900
N342        N  0.44514571  0.60531364  0.96203306    -0.78400
C343        C  0.47839423  0.56741493  0.96231061     0.82300
N344        N  0.49522753  0.54927003  0.99739275    -0.78300
C345        C  0.47834846  0.56862789  0.69872201     0.82400
N346        N  0.44519990  0.60671902  0.69815395    -0.80100
C347        C  0.85689778  0.38243269  0.66242169     0.79900
N348        N  0.83858503  0.39991156  0.69712963    -0.78400
C349        C  0.80363273  0.43624590  0.69720905     0.82300
N350        N  0.78614044  0.45445666  0.99573301    -0.78300
C351        C  0.80392961  0.43653698  0.96094339     0.82400
N352        N  0.83854518  0.39994820  0.96106580    -0.80100
N353        N  0.21588439  0.98910582  0.66317216    -0.36900
N354        N  0.15497163  0.07894088  0.66713153    -0.57500
N355        N  0.06609407  0.01703950  0.67375319    -0.36900
N356        N  0.12727704  0.92710723  0.66639829    -0.57500
C357        C  0.25096831  0.02397009  0.65582714     0.26700
C358        C  0.23635283  0.94394168  0.65646217     0.26700
C359        C  0.04515001  0.06239125  0.66838531     0.26700
C360        C  0.03048627  0.98223347  0.66782207     0.26700
C361        C  0.20022095  0.10054683  0.66847454     0.35300
C362        C  0.12145450  0.11537966  0.67361150     0.35300
C363        C  0.16177610  0.89091439  0.66999981     0.35300
C364        C  0.08288018  0.90555696  0.67356092     0.35300
C365        C  0.29460057  0.00058060  0.64449151    -0.22200
C366        C  0.28538370  0.95014805  0.64487975    -0.22200
C367        C  0.99511371  0.05628076  0.66002460    -0.22200
C368        C  0.98592538  0.00580701  0.65957324    -0.22200
C369        C  0.19542049  0.15124107  0.67534620    -0.23300
C370        C  0.14558060  0.16066945  0.67846326    -0.23300
C371        C  0.13907013  0.84588820  0.67908668    -0.23300
C372        C  0.08907145  0.85515610  0.68129522    -0.23300
C373        C  0.24572418  0.07598028  0.66137142    -0.18600
C374        C  0.21313340  0.89729278  0.66306470    -0.18600
C375        C  0.03658744  0.92988814  0.67074070    -0.18600
C376        C  0.06940355  0.10914280  0.67202613    -0.18600
H377        H  0.32979749  0.01789391  0.63736658     0.14300
H378        H  0.31213350  0.92134881  0.63812604     0.14300
H379        H  0.96786101  0.08511494  0.65481365     0.14300
H380        H  0.95035960  0.98848588  0.65390326     0.14300
H381        H  0.22469123  0.17879856  0.67716111     0.12600
H382        H  0.12914176  0.19696337  0.68302486     0.12600
H383        H  0.15656646  0.80997683  0.68321491     0.12600
H384        H  0.06051325  0.82783726  0.68759025     0.12600
H385        H  0.18095220  0.99561683  0.67450142     0.25800
H386        H  0.10214618  0.01022278  0.68255034     0.25800
C387        C  0.52278441  0.28410965  0.66378408     0.79900
N388        N  0.54022242  0.30275744  0.69837620    -0.78400
C389        C  0.57665648  0.33766096  0.69828497     0.82300
N390        N  0.59483429  0.35504583  0.99667117    -0.78300
C391        C  0.57694658  0.33706622  0.96194231     0.82400
N392        N  0.54039408  0.30222396  0.96227176    -0.80100
N393        N  0.65711692  0.61002097  0.87567142    -0.06400
N394        N  0.65102450  0.63934502  0.90674079    -0.58600
N395        N  0.70171172  0.59263497  0.78380291    -0.06100
N396        N  0.72708738  0.60971366  0.75329911    -0.60700
N397        N  0.65601399  0.60976963  0.78332211    -0.05700
N398        N  0.64912982  0.63849607  0.75187456    -0.58500
N399        N  0.70297699  0.59341624  0.87427793    -0.05400
N400        N  0.72928184  0.61165394  0.90374516    -0.61000
C401        C  0.69655304  0.64026792  0.92357454     0.95700
C402        C  0.69395812  0.63809984  0.73373241     0.95500
N403        N  0.73236773  0.44033210  0.78397027    -0.06600
N404        N  0.74991801  0.41465800  0.75384641    -0.59100
N405        N  0.74962608  0.48658249  0.87508078    -0.04700
N406        N  0.77844016  0.49359830  0.90622890    -0.60400
N407        N  0.73285219  0.44051720  0.87450983    -0.06700
N408        N  0.75039929  0.41494331  0.90470407    -0.59400
N409        N  0.74903605  0.48641880  0.78299410    -0.04400
N410        N  0.77778030  0.49333937  0.75166168    -0.60500
Mn411      Mn  0.72743083  0.54047493  0.82904366     1.18400
C412        C  0.77811631  0.44810091  0.73410524     0.97800
C413        C  0.77865900  0.44841141  0.92406881     0.98500
N414        N  0.54956252  0.56282194  0.78531178    -0.06700
N415        N  0.53175232  0.58903575  0.75553414    -0.63000
N416        N  0.53330515  0.51618594  0.87668712    -0.05500
N417        N  0.50421335  0.50953842  0.90792346    -0.63700
N418        N  0.55034795  0.56218682  0.87582883    -0.06200
N419        N  0.53268650  0.58798822  0.90583347    -0.63200
N420        N  0.53282353  0.51674884  0.78426559    -0.05100
N421        N  0.50378238  0.51045042  0.75309528    -0.63900
Mn422      Mn  0.60253516  0.58783685  0.83011549     1.10700
C423        C  0.50327106  0.55607165  0.73582905     0.99000
C424        C  0.50410648  0.55483688  0.92551697     0.99100
N425        N  0.62670093  0.39257347  0.87598902    -0.06200
N426        N  0.63366425  0.36333665  0.90709907    -0.61600
N427        N  0.58050668  0.40958512  0.78470897    -0.05500
N428        N  0.55505570  0.39182872  0.75458242    -0.58300
N429        N  0.62634705  0.39280475  0.78392830    -0.06800
N430        N  0.63330095  0.36386912  0.75276869    -0.61100
N431        N  0.58082392  0.40925269  0.87540093    -0.05800
N432        N  0.55538945  0.39121219  0.90556981    -0.58300
Mn433      Mn  0.68028587  0.41490198  0.82963317     1.20200
Mn434      Mn  0.55513440  0.46214875  0.83024100     1.10100
Cl435      Cl  0.64129142  0.50132760  0.82980789    -0.86300
C436        C  0.58868068  0.36270009  0.92492502     0.96000
C437        C  0.58837128  0.36349343  0.73505957     0.95800
C438        C  0.42430467  0.20294891  0.97672616     0.29400
C439        C  0.38934307  0.17834948  0.95303170    -0.36900
C440        C  0.35293444  0.15101683  0.97335932     0.15400
C441        C  0.35117062  0.14807855  0.68086904     0.21200
C442        C  0.38621570  0.17245937  0.70452359    -0.35000
C443        C  0.42250967  0.19979916  0.01751840     0.15300
O444        O  0.46040744  0.23212945  0.96407162    -0.27000
C445        C  0.48197548  0.24784941  0.66388811     0.05100
C446        C  0.46008606  0.22877072  0.69804127    -0.31900
O447        O  0.31351723  0.12121944  0.69371239    -0.23700
C448        C  0.29111189  0.10667393  0.66070310    -0.03700
C449        C  0.31373464  0.12409347  0.95968880    -0.18200
H450        H  0.39006745  0.18092324  0.92104606     0.19800
H451        H  0.38486313  0.17074118  0.73653314     0.18200
H452        H  0.46962582  0.23624034  0.72858016     0.18100
H453        H  0.30262479  0.11803811  0.92929840     0.14000
C454        C  0.99335864  0.21104463  0.98227843     0.29400
C455        C  0.96344760  0.24099447  0.95810824    -0.36900
C456        C  0.93971342  0.28082285  0.97694973     0.15400
C457        C  0.94496678  0.29051813  0.68353302     0.21200
C458        C  0.97559565  0.26106136  0.70759357    -0.35000
C459        C  0.99934654  0.22117326  0.68873348     0.15300
O460        O  0.01702216  0.17051368  0.97118705    -0.27000
C461        C  0.03861698  0.15464079  0.67087176     0.05100
C462        C  0.02903008  0.18460629  0.70351496    -0.31900
O463        O  0.91690600  0.32778796  0.69540370    -0.23700
C464        C  0.89392233  0.34247105  0.66257524    -0.03700
C465        C  0.90674926  0.31469927  0.96274768    -0.18200
H466        H  0.95804757  0.23302242  0.92701182     0.19800
H467        H  0.97952377  0.26792088  0.73900034     0.18200
H468        H  0.04154493  0.17960681  0.73369678     0.18100
H469        H  0.89259194  0.31795798  0.93287634     0.14000
C470        C  0.34685693  0.72387276  0.68221008     0.29400
C471        C  0.32049611  0.75810322  0.70542367    -0.36900
C472        C  0.29193322  0.79303300  0.68463133     0.15400
C473        C  0.28961594  0.79443933  0.64378429     0.21200
C474        C  0.31595436  0.76020162  0.62057527    -0.35000
C475        C  0.34433591  0.72512379  0.64138954     0.15300
O476        O  0.37613776  0.68818762  0.69541306    -0.27000
C477        C  0.39249638  0.66625317  0.66260193     0.05100
C478        C  0.37368140  0.68748942  0.96141549    -0.31900
O479        O  0.26121533  0.83080317  0.63056886    -0.23700
C480        C  0.24499616  0.85260808  0.66343587    -0.03700
C481        C  0.26287728  0.83086388  0.69791070    -0.18200
H482        H  0.32224093  0.75763244  0.73743885     0.20800
H483        H  0.31413339  0.76060864  0.92182042     0.18200
H484        H  0.38102335  0.67702677  0.93103239     0.18100
H485        H  0.25589989  0.84188981  0.72821442     0.14000
C486        C  0.86493197  0.79502330  0.98012548     0.29400
C487        C  0.90351540  0.81706744  0.95829802    -0.36900
C488        C  0.93544994  0.84836782  0.97957984     0.15400
C489        C  0.92973993  0.85757396  0.68620846     0.21200
C490        C  0.89136781  0.83528186  0.70805963    -0.35000
C491        C  0.85959616  0.80381651  0.68681274     0.15300
O492        O  0.83124087  0.76387447  0.96639174    -0.27000
C493        C  0.80418741  0.75238637  0.66475601     0.05100
C494        C  0.82012021  0.77614274  0.69903025    -0.31900
O495        O  0.96396287  0.88792192  0.70017309    -0.23700
C496        C  0.99187446  0.89818256  0.66870923    -0.03700
C497        C  0.97615013  0.87451150  0.96773072    -0.18200
H498        H  0.90848379  0.81004557  0.92699674     0.19800
H499        H  0.88680725  0.84174952  0.73947623     0.18200
H500        H  0.80508789  0.77303037  0.72868449     0.18100
H501        H  0.99263077  0.87619594  0.93850613     0.14000
loop_ 
_geom_bond_atom_site_label_1 
_geom_bond_atom_site_label_2 
_geom_bond_distance 
_geom_bond_site_symmetry_2 
_ccdc_geom_bond_type 
C1            N6   1.356   1_556  A
C1          N336   1.358       .  A
C1          C159   1.469       .  S
N2            C3   1.359       .  A
N2          C168   1.358       .  A
C3            N4   1.359       .  A
C3           C67   1.461       .  S
N4          C172   1.358       .  A
C5            N6   1.355       .  A
C5          N338   1.358   1_554  A
C5           C68   1.459       .  S
C7           N12   1.357   1_556  A
C7          N342   1.357       .  A
C7          C143   1.471       .  S
N8            C9   1.357       .  A
N8          C174   1.357       .  A
C9           N10   1.359       .  A
C9           C90   1.462       .  S
N10         C178   1.359       .  A
C11          N12   1.359       .  A
C11         N344   1.359   1_554  A
C11          C89   1.462       .  S
C13          N14   1.356   1_556  A
C13         N352   1.356       .  A
C13         C130   1.466       .  S
N14          C15   1.357       .  A
C15         N350   1.358   1_554  A
C15          C78   1.458       .  S
N16          C17   1.358       .  A
N16         C182   1.358       .  A
C17          N18   1.356       .  A
C17          C79   1.455       .  S
N18         C180   1.356       .  A
N19          C24   1.352       .  A
N19          C23   1.351   1_565  A
N19          H51   1.031   1_556  S
N20          C27   1.351       .  A
N20          C28   1.350       .  A
N21          C26   1.354   1_545  A
N21          C25   1.354       .  A
N21          H52   1.033       .  S
N22          C29   1.351   1_556  A
N22          C30   1.349   1_556  A
C23          C31   1.388       .  A
C23          C39   1.416       .  A
C24          C40   1.415       .  A
C24          C32   1.387       .  A
C25          C33   1.388   1_454  A
C25          C42   1.419       .  A
C26          C41   1.418       .  A
C26          C34   1.387   1_464  A
C27          C39   1.414   1_554  A
C27          C35   1.387       .  A
C28          C42   1.414       .  A
C28          C36   1.388       .  A
C29          C37   1.387       .  A
C29          C40   1.414   1_554  A
C30          C38   1.387       .  A
C30          C41   1.413       .  A
C31          C32   1.375   1_545  A
C31          H43   1.082       .  S
C32          H44   1.082       .  S
C33          C34   1.376       .  A
C33          H45   1.082       .  S
C34          H46   1.082   1_545  S
C35          C36   1.371       .  A
C35          H47   1.082       .  S
C36          H48   1.082       .  S
C37          C38   1.373       .  A
C37          H49   1.082       .  S
C38          H50   1.083       .  S
C39         C114   1.474       .  S
C40         C146   1.476       .  S
C41         C162   1.476   1_455  S
C42         C127   1.478       .  S
C53          N54   1.357   1_556  A
C53         N392   1.356       .  A
C53         C111   1.467       .  S
N54          C55   1.356       .  A
C55         N390   1.358   1_554  A
C55         C103   1.459       .  S
N56          C57   1.358       .  A
N56         C222   1.358       .  A
C57          N58   1.357       .  A
C57         C102   1.459       .  S
N58         C220   1.356       .  A
N59          N60   1.323       .  A
N59          N65   1.316       .  A
N59         Mn88   2.213       .  S
N60          C67   1.354       .  A
N61          N63   1.316       .  A
N61          N62   1.316       .  A
N61         Mn77   2.184       .  S
N62          C68   1.348       .  A
N63          N64   1.324       .  A
N63         Mn88   2.215       .  S
N64          C68   1.354       .  A
N65          N66   1.318       .  A
N65         Mn77   2.190       .  S
N66          C67   1.349       .  A
N69          N75   1.315       .  A
N69          N70   1.318       .  A
N69         Mn99   2.190       .  S
N70          C78   1.349       .  A
N71          N72   1.323       .  A
N71          N73   1.316       .  A
N71         Mn77   2.205       .  S
N72          C79   1.352       .  A
N73          N74   1.317       .  A
N73         Mn99   2.188       .  S
N74          C79   1.348       .  A
N75          N76   1.323       .  A
N75         Mn77   2.207       .  S
N76          C78   1.352       .  A
Mn77       Cl101   2.547       .  S
N80          N81   1.317       .  A
N80          N86   1.316       .  A
N80         Mn88   2.189       .  S
N81          C89   1.348       .  A
N82          N84   1.317       .  A
N82          N83   1.325       .  A
N82        Mn100   2.218       .  S
N83          C90   1.354       .  A
N84          N85   1.317       .  A
N84         Mn88   2.195       .  S
N85          C90   1.349       .  A
N86          N87   1.324       .  A
N86        Mn100   2.216       .  S
N87          C89   1.355       .  A
Mn88       Cl101   2.547       .  S
N91          N92   1.323       .  A
N91          N97   1.316       .  A
N91         Mn99   2.209       .  S
N92         C102   1.353       .  A
N93          N94   1.318       .  A
N93          N95   1.316       .  A
N93        Mn100   2.198       .  S
N94         C103   1.350       .  A
N95          N96   1.323       .  A
N95         Mn99   2.204       .  S
N96         C103   1.352       .  A
N97          N98   1.318       .  A
N97        Mn100   2.194       .  S
N98         C102   1.349       .  A
Mn99       Cl101   2.548       .  S
Mn100      Cl101   2.548       .  S
C104        C109   1.381       .  A
C104        C105   1.403       .  A
C104        O110   1.318       .  A
C105        C106   1.402       .  A
C105        H116   1.082       .  S
C106        C115   1.361       .  A
C106        C274   1.381       .  A
C107        C108   1.401       .  A
C107        C440   1.381   1_554  A
C107        O113   1.316       .  A
C108        C443   1.400       .  A
C108        H117   1.082       .  S
C109        C275   1.400       .  A
C109        C279   1.359       .  A
O110        C278   1.330       .  A
C111        C112   1.391   1_556  A
C111        O444   1.330       .  A
C112        C443   1.359       .  A
C112        H118   1.083       .  S
O113        C114   1.328   1_554  A
C114        C449   1.389       .  A
C115        C281   1.389       .  A
C115        H119   1.082       .  S
C120        C121   1.401       .  A
C120        C292   1.381       .  A
C120        O126   1.317   1_655  A
C121        C122   1.400       .  A
C121        H132   1.082       .  S
C122        C131   1.359       .  A
C122        C290   1.381       .  A
C123        C124   1.403       .  A
C123        C456   1.381   1_554  A
C123        O129   1.318       .  A
C124        C125   1.402       .  A
C124        H133   1.082       .  S
C125        C128   1.361   1_655  A
C125        C454   1.381   1_554  A
O126        C294   1.329       .  A
C127        C128   1.390       .  A
C127        O460   1.329   1_554  A
C128        H134   1.082       .  S
O129        C130   1.330   1_554  A
C130        C465   1.390       .  A
C131        C297   1.390       .  A
C131        H135   1.083       .  S
C136        C141   1.381   1_554  A
C136        C137   1.402       .  A
C136        O142   1.319       .  A
C137        C138   1.402       .  A
C137        H148   1.082       .  S
C138        C147   1.360       .  A
C138        C139   1.381   1_554  A
C139        C140   1.402       .  A
C139        O145   1.319       .  A
C140        C141   1.402       .  A
C140        H483   1.082       .  S
C141        C478   1.360       .  A
O142        C143   1.331   1_554  A
C143        C478   1.391       .  A
C144        C308   1.360       .  A
C144        C310   1.391       .  A
C144        H150   1.082       .  S
O145        C146   1.330       .  A
C146        C147   1.388   1_556  A
C147        H151   1.082       .  S
H149        C307   1.082       .  S
C152        C153   1.403       .  A
C152        C324   1.381       .  A
C152        O158   1.319       .  A
C153        C154   1.402       .  A
C153        H164   1.082       .  S
C154        C163   1.360       .  A
C154        C322   1.381       .  A
C155        C156   1.402       .  A
C155        C488   1.381   1_554  A
C155        O161   1.318       .  A
C156        C157   1.402       .  A
C156        H165   1.082       .  S
C157        C160   1.359       .  A
C157        C486   1.381   1_554  A
O158        C326   1.330       .  A
C159        C160   1.391   1_556  A
C159        O492   1.330       .  A
C160        H166   1.083       .  S
O161        C162   1.329       .  A
C162        C497   1.389   1_554  A
C163        C329   1.389       .  A
C163        H167   1.082       .  S
C168        N173   1.356       .  A
C168        C326   1.469       .  S
N169        C335   1.358       .  A
N169        C170   1.359       .  A
C170        N171   1.359       .  A
C170        C234   1.461       .  S
N171        C339   1.358       .  A
C172        N173   1.355       .  A
C172        C235   1.459       .  S
C174        N179   1.357       .  A
C174        C310   1.471       .  S
N175        C341   1.357       .  A
N175        C176   1.357       .  A
C176        N177   1.359       .  A
C176        C257   1.462       .  S
N177        C345   1.359       .  A
C178        N179   1.359       .  A
C178        C256   1.462       .  S
C180        N181   1.356       .  A
C180        C297   1.466       .  S
N181        C182   1.357       .  A
C182        C245   1.458       .  S
N183        C349   1.358       .  A
N183        C184   1.358       .  A
C184        N185   1.356       .  A
C184        C246   1.455       .  S
N185        C347   1.356       .  A
N186        C191   1.352       .  A
N186        C190   1.351   1_565  A
N186        H218   1.031       .  S
N187        C194   1.351       .  A
N187        C195   1.350       .  A
N188        C193   1.354   1_545  A
N188        C192   1.354       .  A
N188        H219   1.033       .  S
N189        C196   1.351       .  A
N189        C197   1.349       .  A
C190        C198   1.388       .  A
C190        C206   1.416       .  A
C191        C207   1.415       .  A
C191        C199   1.387       .  A
C192        C200   1.388   1_455  A
C192        C209   1.419       .  A
C193        C208   1.418       .  A
C193        C201   1.387   1_465  A
C194        C206   1.414       .  A
C194        C202   1.387       .  A
C195        C209   1.414       .  A
C195        C203   1.388       .  A
C196        C204   1.387       .  A
C196        C207   1.414       .  A
C197        C205   1.387       .  A
C197        C208   1.413       .  A
C198        C199   1.375   1_545  A
C198        H210   1.082       .  S
C199        H211   1.082       .  S
C200        C201   1.376       .  A
C200        H212   1.082       .  S
C201        H213   1.082   1_545  S
C202        C203   1.372       .  A
C202        H214   1.082       .  S
C203        H215   1.082       .  S
C204        C205   1.373       .  A
C204        H216   1.082       .  S
C205        H217   1.083       .  S
C206        C281   1.474       .  S
C207        C313   1.476       .  S
C208        C329   1.476   1_455  S
C209        C294   1.478       .  S
C220        N221   1.357       .  A
C220        C278   1.467       .  S
N221        C222   1.356       .  A
C222        C270   1.459       .  S
N223        C389   1.358       .  A
N223        C224   1.358       .  A
C224        N225   1.357       .  A
C224        C269   1.459       .  S
N225        C387   1.356       .  A
N226        N227   1.323       .  A
N226        N232   1.316       .  A
N226       Mn255   2.213       .  S
N227        C234   1.354       .  A
N228        N230   1.316       .  A
N228        N229   1.316       .  A
N228       Mn244   2.184       .  S
N229        C235   1.348       .  A
N230        N231   1.324       .  A
N230       Mn255   2.215       .  S
N231        C235   1.354       .  A
N232        N233   1.318       .  A
N232       Mn244   2.190       .  S
N233        C234   1.349       .  A
N236        N242   1.315       .  A
N236        N237   1.318       .  A
N236       Mn266   2.190       .  S
N237        C245   1.349       .  A
N238        N239   1.323       .  A
N238        N240   1.316       .  A
N238       Mn244   2.205       .  S
N239        C246   1.352       .  A
N240        N241   1.317       .  A
N240       Mn266   2.188       .  S
N241        C246   1.348       .  A
N242        N243   1.323       .  A
N242       Mn244   2.207       .  S
N243        C245   1.352       .  A
Mn244      Cl268   2.547       .  S
N247        N248   1.317       .  A
N247        N253   1.316       .  A
N247       Mn255   2.189       .  S
N248        C256   1.348       .  A
N249        N251   1.317       .  A
N249        N250   1.325       .  A
N249       Mn267   2.218       .  S
N250        C257   1.354       .  A
N251        N252   1.317       .  A
N251       Mn255   2.195       .  S
N252        C257   1.349       .  A
N253        N254   1.324       .  A
N253       Mn267   2.216       .  S
N254        C256   1.355       .  A
Mn255      Cl268   2.547       .  S
N258        N259   1.323       .  A
N258        N264   1.316       .  A
N258       Mn266   2.209       .  S
N259        C269   1.353       .  A
N260        N261   1.318       .  A
N260        N262   1.316       .  A
N260       Mn267   2.198       .  S
N261        C270   1.350       .  A
N262        N263   1.323       .  A
N262       Mn266   2.204       .  S
N263        C270   1.352       .  A
N264        N265   1.318       .  A
N264       Mn267   2.194       .  S
N265        C269   1.349       .  A
Mn266      Cl268   2.548       .  S
Mn267      Cl268   2.548       .  S
C271        C276   1.381       .  A
C271        C272   1.403       .  A
C271        O277   1.318       .  A
C272        C273   1.402       .  A
C272        H283   1.082       .  S
C273        C282   1.361       .  A
C273        C441   1.381       .  A
C274        C275   1.401       .  A
C274        O280   1.316       .  A
C275        H284   1.082       .  S
C276        C442   1.400       .  A
C276        C446   1.359       .  A
O277        C445   1.330       .  A
C278        C279   1.391       .  A
C279        H285   1.083       .  S
O280        C281   1.328       .  A
C282        C448   1.389       .  A
C282        H286   1.082       .  S
C287        C459   1.381       .  A
C287        C288   1.401       .  A
C287        O293   1.317   1_655  A
C288        C289   1.400       .  A
C288        H299   1.082       .  S
C289        C298   1.359       .  A
C289        C457   1.381       .  A
C290        C291   1.403       .  A
C290        O296   1.318       .  A
C291        C292   1.402       .  A
C291        H300   1.082       .  S
C292        C295   1.361   1_655  A
O293        C461   1.329       .  A
C294        C295   1.390       .  A
C295        H301   1.082       .  S
O296        C297   1.330       .  A
C298        C464   1.390       .  A
C298        H302   1.083       .  S
C303        C308   1.381       .  A
C303        C304   1.403       .  A
C303        O309   1.319       .  A
C304        C305   1.402       .  A
C304        H315   1.082       .  S
C305        C314   1.360       .  A
C305        C306   1.381       .  A
C306        C307   1.402       .  A
C306        O312   1.319       .  A
C307        C308   1.402       .  A
O309        C310   1.331       .  A
C311        C475   1.360       .  A
C311        C477   1.391       .  A
C311        H317   1.082       .  S
O312        C313   1.330       .  A
C313        C314   1.388       .  A
C314        H318   1.082       .  S
H316        C474   1.082       .  S
C319        C491   1.381       .  A
C319        C320   1.403       .  A
C319        O325   1.319       .  A
C320        C321   1.402       .  A
C320        H331   1.082       .  S
C321        C330   1.360       .  A
C321        C489   1.381       .  A
C322        C323   1.402       .  A
C322        O328   1.318       .  A
C323        C324   1.402       .  A
C323        H332   1.082       .  S
C324        C327   1.359       .  A
O325        C493   1.330       .  A
C326        C327   1.391       .  A
C327        H333   1.083       .  S
O328        C329   1.329       .  A
C330        C496   1.389       .  A
C330        H334   1.082       .  S
C335        N340   1.356       .  A
C335        C493   1.469       .  S
N336        C337   1.359       .  A
C337        N338   1.359       .  A
C337        C401   1.461       .  S
C339        N340   1.355       .  A
C339        C402   1.459       .  S
C341        N346   1.357       .  A
C341        C477   1.471       .  S
N342        C343   1.357       .  A
C343        N344   1.359       .  A
C343        C424   1.462       .  S
C345        N346   1.359       .  A
C345        C423   1.462       .  S
C347        N348   1.356       .  A
C347        C464   1.466       .  S
N348        C349   1.357       .  A
C349        C412   1.458       .  S
N350        C351   1.358       .  A
C351        N352   1.356       .  A
C351        C413   1.455       .  S
N353        C358   1.352       .  A
N353        C357   1.351   1_565  A
N353        H385   1.031       .  S
N354        C361   1.351       .  A
N354        C362   1.350       .  A
N355        C360   1.354   1_545  A
N355        C359   1.354       .  A
N355        H386   1.033       .  S
N356        C363   1.351       .  A
N356        C364   1.349       .  A
C357        C365   1.388       .  A
C357        C373   1.416       .  A
C358        C374   1.415       .  A
C358        C366   1.387       .  A
C359        C367   1.388   1_455  A
C359        C376   1.419       .  A
C360        C375   1.418       .  A
C360        C368   1.387   1_465  A
C361        C373   1.414       .  A
C361        C369   1.387       .  A
C362        C376   1.414       .  A
C362        C370   1.388       .  A
C363        C371   1.387       .  A
C363        C374   1.414       .  A
C364        C372   1.387       .  A
C364        C375   1.413       .  A
C365        C366   1.375   1_545  A
C365        H377   1.082       .  S
C366        H378   1.082       .  S
C367        C368   1.377       .  A
C367        H379   1.082       .  S
C368        H380   1.082   1_545  S
C369        C370   1.371       .  A
C369        H381   1.082       .  S
C370        H382   1.082       .  S
C371        C372   1.373       .  A
C371        H383   1.082       .  S
C372        H384   1.083       .  S
C373        C448   1.474       .  S
C374        C480   1.476       .  S
C375        C496   1.476   1_455  S
C376        C461   1.478       .  S
C387        N388   1.357       .  A
C387        C445   1.467       .  S
N388        C389   1.356       .  A
C389        C437   1.459       .  S
N390        C391   1.358       .  A
C391        N392   1.357       .  A
C391        C436   1.459       .  S
N393        N394   1.323       .  A
N393        N399   1.316       .  A
N393       Mn422   2.213       .  S
N394        C401   1.354       .  A
N395        N397   1.316       .  A
N395        N396   1.316       .  A
N395       Mn411   2.184       .  S
N396        C402   1.348       .  A
N397        N398   1.324       .  A
N397       Mn422   2.215       .  S
N398        C402   1.354       .  A
N399        N400   1.318       .  A
N399       Mn411   2.190       .  S
N400        C401   1.349       .  A
N403        N409   1.315       .  A
N403        N404   1.318       .  A
N403       Mn433   2.190       .  S
N404        C412   1.349       .  A
N405        N406   1.323       .  A
N405        N407   1.316       .  A
N405       Mn411   2.205       .  S
N406        C413   1.352       .  A
N407        N408   1.317       .  A
N407       Mn433   2.188       .  S
N408        C413   1.348       .  A
N409        N410   1.323       .  A
N409       Mn411   2.208       .  S
N410        C412   1.352       .  A
Mn411      Cl435   2.547       .  S
N414        N415   1.317       .  A
N414        N420   1.316       .  A
N414       Mn422   2.189       .  S
N415        C423   1.348       .  A
N416        N418   1.317       .  A
N416        N417   1.325       .  A
N416       Mn434   2.218       .  S
N417        C424   1.354       .  A
N418        N419   1.317       .  A
N418       Mn422   2.195       .  S
N419        C424   1.349       .  A
N420        N421   1.324       .  A
N420       Mn434   2.216       .  S
N421        C423   1.355       .  A
Mn422      Cl435   2.547       .  S
N425        N426   1.323       .  A
N425        N431   1.316       .  A
N425       Mn433   2.209       .  S
N426        C436   1.353       .  A
N427        N428   1.318       .  A
N427        N429   1.316       .  A
N427       Mn434   2.198       .  S
N428        C437   1.350       .  A
N429        N430   1.323       .  A
N429       Mn433   2.204       .  S
N430        C437   1.352       .  A
N431        N432   1.318       .  A
N431       Mn434   2.194       .  S
N432        C436   1.349       .  A
Mn433      Cl435   2.548       .  S
Mn434      Cl435   2.548       .  S
C438        C443   1.381   1_556  A
C438        C439   1.403       .  A
C438        O444   1.318       .  A
C439        C440   1.402       .  A
C439        H450   1.082       .  S
C440        C449   1.361       .  A
C441        C442   1.401       .  A
C441        O447   1.316       .  A
C442        H451   1.082       .  S
C445        C446   1.391       .  A
C446        H452   1.083       .  S
O447        C448   1.328       .  A
C449        H453   1.082       .  S
C454        C455   1.401       .  A
C454        O460   1.317   1_655  A
C455        C456   1.400       .  A
C455        H466   1.082       .  S
C456        C465   1.359       .  A
C457        C458   1.403       .  A
C457        O463   1.318       .  A
C458        C459   1.402       .  A
C458        H467   1.082       .  S
C459        C462   1.361   1_655  A
C461        C462   1.390       .  A
C462        H468   1.082       .  S
O463        C464   1.330       .  A
C465        H469   1.083       .  S
C470        C475   1.381       .  A
C470        C471   1.403       .  A
C470        O476   1.319       .  A
C471        C472   1.402       .  A
C471        H482   1.082       .  S
C472        C481   1.360       .  A
C472        C473   1.381       .  A
C473        C474   1.402       .  A
C473        O479   1.319       .  A
C474        C475   1.402       .  A
O476        C477   1.331       .  A
C478        H484   1.082       .  S
O479        C480   1.330       .  A
C480        C481   1.388       .  A
C481        H485   1.082       .  S
C486        C487   1.403       .  A
C486        O492   1.319       .  A
C487        C488   1.402       .  A
C487        H498   1.082       .  S
C488        C497   1.360       .  A
C489        C490   1.402       .  A
C489        O495   1.318       .  A
C490        C491   1.402       .  A
C490        H499   1.082       .  S
C491        C494   1.359       .  A
C493        C494   1.391       .  A
C494        H500   1.083       .  S
O495        C496   1.329       .  A
C497        H501   1.082       .  S
