geometry optimzed in LAMMPS
_audit_creation_date              2020-11-30 
_audit_creation_method            'lammps2cif' 
_symmetry_space_group_name_H-M    'P1' 
_symmetry_Int_Tables_number       1 
_symmetry_cell_setting            triclinic 
loop_ 
_symmetry_equiv_pos_as_xyz 
  x,y,z 
_cell_length_a                    53.32981200598712 
_cell_length_b                    25.432158791077068 
_cell_length_c                    30.52742237797121 
_cell_angle_alpha                 93.37011713513718 
_cell_angle_beta                  105.40367649938139 
_cell_angle_gamma                 88.78369002080878 
loop_ 
_atom_site_label 
_atom_site_type_symbol 
_atom_site_fract_x 
_atom_site_fract_y 
_atom_site_fract_z 
_atom_site_charge 
O1          O  0.15076149  0.80479557  0.34651122    -0.75680
O2          O  0.18190333  0.77852546  0.31129807    -0.54580
C3          C  0.16937938  0.81387942  0.32861303     0.78050
O4          O  0.16938568  0.64954560  0.50077082    -0.60280
O5          O  0.13104484  0.60538924  0.47519717    -0.53310
C6          C  0.14900724  0.62843035  0.50713938     0.70070
O7          O  0.22534539  0.70705540  0.42762857    -0.74840
O8          O  0.22294235  0.71546005  0.35272250    -0.55400
C9          C  0.23472654  0.71936514  0.39507191     0.76070
O10         O  0.09079212  0.72135019  0.39721680    -0.59980
O11         O  0.08706674  0.63406156  0.40790971    -0.53100
C12         C  0.08021009  0.68200401  0.41002447     0.72660
Zr13       Zr  0.12394815  0.73362452  0.35651525     2.54710
O14         O  0.11576187  0.81385031  0.39818283    -0.80550
O15         O  0.08967580  0.76617421  0.29407363    -0.93960
Zr16       Zr  0.18671755  0.66637147  0.43672113     2.64680
O17         O  0.19731778  0.74744715  0.48392453    -0.98920
O18         O  0.21978960  0.61702213  0.48957526    -0.80980
O19         O  0.16982170  0.72326892  0.37761954    -0.84340
O20         O  0.14105015  0.67958840  0.41744443    -2.19050
O21         O  0.08126517  0.56259674  0.27281100    -0.67730
O22         O  0.08622524  0.54600022  0.34715094    -0.52290
C23         C  0.07502570  0.53896983  0.30429982     0.71040
O24         O  0.20450270  0.54942198  0.29116250    -0.60630
O25         O  0.20995144  0.63489600  0.27659636    -0.52610
C26         C  0.21326405  0.58512037  0.27070706     0.72850
O27         O  0.17110286  0.48903974  0.40698874    -0.72030
O28         O  0.13288696  0.51097900  0.42385801    -0.50710
C29         C  0.15372705  0.48371027  0.42907609     0.74230
O30         O  0.13329542  0.64446325  0.20469586    -0.67360
O31         O  0.16933854  0.69559070  0.23236448    -0.54560
C32         C  0.15162181  0.67390232  0.19990477     0.72610
Zr33       Zr  0.11734850  0.61434985  0.26687147     2.77540
O34         O  0.11322513  0.54287768  0.20873736    -0.98110
O35         O  0.07920037  0.65941228  0.22203053    -0.78930
Zr36       Zr  0.17891885  0.54310177  0.34695663     2.70070
O37         O  0.16623350  0.45943810  0.30462718    -0.80180
O38         O  0.22166655  0.50561245  0.37827934    -0.99260
Zr39       Zr  0.18097702  0.68412895  0.31278487     2.21500
Zr40       Zr  0.12369270  0.59461447  0.39200059     2.11130
O41         O  0.13336951  0.55429023  0.32578510    -2.47950
O42         O  0.16264392  0.60041513  0.28724650    -0.79970
O43         O  0.10529734  0.65044585  0.33170067    -0.72160
O44         O  0.19835329  0.62609684  0.37230590    -2.33120
O45         O  0.13516941  0.69896160  0.29063710    -2.29330
O46         O  0.16925967  0.58215522  0.41276003    -0.73920
H47         H  0.13553152  0.69463749  0.44310100     0.78070
H48         H  0.21693411  0.62145313  0.37791815     0.79160
H49         H  0.12559956  0.51991884  0.31775874     0.81390
H50         H  0.13025050  0.72340476  0.26672613     0.78990
H51         H  0.22310752  0.58544202  0.47135412     0.42030
H52         H  0.22596268  0.51668238  0.41102693     0.41000
H53         H  0.15756223  0.46928187  0.27328215     0.40680
H54         H  0.11060407  0.51081396  0.22384265     0.38610
H55         H  0.08615192  0.69057470  0.21130141     0.41740
H56         H  0.09642215  0.79990067  0.28733587     0.36530
H57         H  0.12872681  0.81277426  0.42812404     0.42640
H58         H  0.18029343  0.76451959  0.48254151     0.39060
H59         H  0.09624932  0.54920586  0.18674312     0.43980
H60         H  0.07541244  0.77658377  0.30802227     0.42700
H61         H  0.20368507  0.73593109  0.51539484     0.42840
H62         H  0.21832570  0.46735086  0.37708988     0.43190
O63         O  0.08999030  0.69602621  0.90049503    -0.75680
O64         O  0.11897256  0.75600517  0.94349428    -0.54580
C65         C  0.09670485  0.73229485  0.93215244     0.78050
O66         O  0.15263866  0.50710967  0.89175471    -0.60280
O67         O  0.17311767  0.49782225  0.83675536    -0.53310
C68         C  0.16800750  0.48215864  0.87304958     0.70070
O69         O  0.15371986  0.63562710  0.99479300    -0.74840
O70         O  0.16465758  0.72208245  0.00025385    -0.55400
C71         C  0.15918232  0.68019266  0.01707980     0.76070
O72         O  0.08947877  0.57464584  0.79300737    -0.59980
O73         O  0.11864870  0.56372413  0.75246660    -0.53100
C74         C  0.09961649  0.54743221  0.76509286     0.72660
Zr75       Zr  0.10498188  0.65640692  0.83846555     2.54710
O76         O  0.06208496  0.62755874  0.84057030    -0.80550
O77         O  0.07865025  0.71310629  0.78226425    -0.93960
Zr78       Zr  0.16409899  0.59210157  0.92877467     2.64680
O79         O  0.15117310  0.53232453  0.97845170    -0.98920
O80         O  0.20563495  0.56985537  0.97921910    -0.80980
O81         O  0.13365137  0.66083200  0.91333232    -0.84340
O82         O  0.13434526  0.58505011  0.85478764    -2.19050
O83         O  0.14859785  0.68671139  0.71732489    -0.67730
O84         O  0.15428732  0.59764075  0.72072954    -0.52290
C85         C  0.14960388  0.64003085  0.69854189     0.71040
O86         O  0.21341526  0.76053292  0.89008009    -0.60630
O87         O  0.20383355  0.77676068  0.95537254    -0.52610
C88         C  0.21998344  0.77974329  0.93071052     0.72850
O89         O  0.23063642  0.61284503  0.82386065    -0.72030
O90         O  0.19878945  0.56206775  0.77662377    -0.50710
C91         C  0.22214484  0.57944525  0.79028580     0.74230
O92         O  0.15976493  0.82231941  0.82951066    -0.67360
O93         O  0.15849417  0.82562139  0.90379182    -0.54560
C94         C  0.16032019  0.84694162  0.86807683     0.72610
Zr95       Zr  0.15381054  0.73344241  0.79221798     2.77540
O96         O  0.18330351  0.77852858  0.75839806    -0.98110
O97         O  0.11721708  0.77864492  0.74368996    -0.78930
Zr98       Zr  0.21358770  0.66665196  0.87796504     2.70070
O99         O  0.25542532  0.69652784  0.87111830    -0.80180
O100        O  0.24670494  0.64206532  0.94564688    -0.99260
Zr101      Zr  0.15984248  0.73699888  0.92146063     2.21500
Zr102      Zr  0.16049265  0.58421331  0.80151259     2.11130
O103        O  0.18427708  0.66285970  0.80477894    -2.47950
O104        O  0.18295180  0.73596817  0.86459209    -0.79970
O105        O  0.12995815  0.65526861  0.78559886    -0.72160
O106        O  0.19080026  0.66668122  0.93580416    -2.33120
O107        O  0.12918310  0.73545460  0.84705319    -2.29330
O108        O  0.19008701  0.58842356  0.87558959    -0.73920
H109        H  0.12311151  0.55518291  0.85119921     0.78070
H110        H  0.20246135  0.67135308  0.96593566     0.79160
H111        H  0.19310465  0.66333967  0.78109374     0.81390
H112        H  0.11778775  0.76584192  0.84420282     0.78990
H113        H  0.21840952  0.57577882  0.96187011     0.42030
H114        H  0.25662621  0.61323919  0.93458769     0.41000
H115        H  0.25099142  0.71983986  0.84525565     0.40680
H116        H  0.19363683  0.75014794  0.74778560     0.38610
H117        H  0.10726885  0.75049542  0.72290269     0.41740
H118        H  0.06675891  0.73156975  0.79811994     0.36530
H119        H  0.06555982  0.60027471  0.86332512     0.42640
H120        H  0.13393879  0.51851957  0.96118720     0.39060
H121        H  0.17194045  0.79209527  0.73010427     0.43980
H122        H  0.06732057  0.68857235  0.75946581     0.42700
H123        H  0.16316450  0.50176785  0.98058392     0.42840
H124        H  0.25898324  0.67185692  0.95376960     0.43190
O125        O  0.99711247  0.82459337  0.04773849    -0.75680
O126        O  0.00094870  0.86834937  0.98983047    -0.54580
C127        C  0.00943839  0.85741785  0.03191136     0.78050
O128        O  0.41372236  0.66502198  0.02912650    -0.60280
O129        O  0.38155208  0.71619258  0.04740895    -0.53310
C130        C  0.39257204  0.67034567  0.04112503     0.70070
O131        O  0.48776840  0.72071587  0.99554132    -0.74840
O132        O  0.98072347  0.75891671  0.92959502    -0.55400
C133        C  0.99623547  0.73799113  0.96308560     0.76070
O134        O  0.44839432  0.83468303  0.14172725    -0.59980
O135        O  0.40506394  0.81768634  0.12599213    -0.53100
C136        C  0.42781180  0.82520987  0.15395216     0.72660
Zr137      Zr  0.45979926  0.85472577  0.07288992     2.54710
O138        O  0.49760068  0.85960406  0.13858849    -0.80550
O139        O  0.44959976  0.94711493  0.08647725    -0.93960
Zr140      Zr  0.44205563  0.72015461  0.00340478     2.64680
O141        O  0.46837946  0.66666147  0.06255446    -0.98920
O142        O  0.43736999  0.64603933  0.94762875    -0.80980
O143        O  0.46717079  0.79530689  0.01517827    -0.84340
O144        O  0.43384259  0.77863961  0.06300027    -2.19050
O145        O  0.37412975  0.95667021  0.99798614    -0.67730
O146        O  0.37488833  0.90925631  0.05936854    -0.52290
C147        C  0.36998880  0.95252267  0.03658971     0.71040
O148        O  0.39775009  0.80479922  0.84582715    -0.60630
O149        O  0.44041658  0.82905205  0.86211957    -0.52610
C150        C  0.41824509  0.81747774  0.83412620     0.72850
O151        O  0.34146982  0.79047816  0.93432473    -0.72030
O152        O  0.34508880  0.80356759  0.01044750    -0.50710
C153        C  0.33159540  0.79548659  0.96920496     0.74230
O154        O  0.43685790  0.97272772  0.92973594    -0.67360
O155        O  0.46634223  0.91454720  0.91239779    -0.54560
C156        C  0.45570552  0.96019751  0.91159866     0.72610
Zr157      Zr  0.41097758  0.92915793  0.97438514     2.77540
O158        O  0.38068464  0.96587158  0.90874101    -0.98110
O159        O  0.42294214  0.01558984  0.01219917    -0.78930
Zr160      Zr  0.38486818  0.79207169  0.91548153     2.70070
O161        O  0.34878305  0.81789304  0.85290710    -0.80180
O162        O  0.37641595  0.70049314  0.88865589    -0.99260
Zr163      Zr  0.45753102  0.83562481  0.94432501     2.21500
Zr164      Zr  0.39073571  0.81483105  0.04205605     2.11130
O165        O  0.38166013  0.85781410  0.97101010    -2.47950
O166        O  0.41361473  0.86422201  0.91919481    -0.79970
O167        O  0.41790086  0.88906761  0.04652672    -0.72160
O168        O  0.42916842  0.76093972  0.93295650    -2.33120
O169        O  0.45351788  0.89857803  0.00305690    -2.29330
O170        O  0.39789598  0.75174335  0.98523563    -0.73920
H171        H  0.43684133  0.75859094  0.08980422     0.78070
H172        H  0.43162820  0.73736357  0.90843139     0.79160
H173        H  0.36415834  0.87162846  0.96302744     0.81390
H174        H  0.46529937  0.92751864  0.00581489     0.78990
H175        H  0.45476153  0.64172244  0.94198925     0.42030
H176        H  0.36635098  0.68687572  0.90850686     0.41000
H177        H  0.34752765  0.85660471  0.85768466     0.40680
H178        H  0.36419217  0.94682663  0.90508810     0.38610
H179        H  0.41700330  0.01620181  0.04026358     0.41740
H180        H  0.46218619  0.96987884  0.07831665     0.36530
H181        H  0.99170159  0.87647919  0.16413517     0.42640
H182        H  0.46062334  0.67182580  0.08859505     0.39060
H183        H  0.37716137  0.00216777  0.91927844     0.43980
H184        H  0.45208698  0.95265515  0.11967444     0.42700
H185        H  0.46427007  0.62977086  0.05106472     0.42840
H186        H  0.36367192  0.70234761  0.85855847     0.43190
O187        O  0.99463866  0.82449697  0.57553989    -0.75680
O188        O  0.00910438  0.86293453  0.52423404    -0.54580
C189        C  0.01218453  0.85080552  0.56596270     0.78050
O190        O  0.41009352  0.67718056  0.52912972    -0.60280
O191        O  0.37589896  0.72922065  0.53724414    -0.53310
C192        C  0.38748771  0.68300474  0.53511942     0.70070
O193        O  0.48467628  0.70617853  0.50538728    -0.74840
O194        O  0.99772742  0.77030535  0.46681004    -0.55400
C195        C  0.00025481  0.72606493  0.48537280     0.76070
O196        O  0.43254330  0.85873916  0.63851848    -0.59980
O197        O  0.39056516  0.83240916  0.61089443    -0.53100
C198        C  0.41067830  0.84437047  0.64393315     0.72660
Zr199      Zr  0.45566693  0.87085240  0.58140010     2.54710
O200        O  0.48554228  0.87250803  0.65728921    -0.80550
O201        O  0.46591269  0.96257545  0.60793387    -0.93960
Zr202      Zr  0.44300436  0.73130960  0.51817694     2.64680
O203        O  0.46549365  0.70355097  0.59363968    -0.98920
O204        O  0.44242369  0.64281536  0.48291507    -0.80980
O205        O  0.46827161  0.80602255  0.53278125    -0.84340
O206        O  0.42903120  0.79476076  0.56765665    -2.19050
O207        O  0.37171164  0.95489473  0.47268790    -0.67730
O208        O  0.36837380  0.92034060  0.53680369    -0.52290
C209        C  0.36530640  0.95957854  0.50971923     0.71040
O210        O  0.41947621  0.79932080  0.35197451    -0.60630
O211        O  0.46191459  0.82423770  0.37993555    -0.52610
C212        C  0.44184573  0.81013905  0.34698070     0.72850
O213        O  0.35353422  0.77885266  0.41298044    -0.72030
O214        O  0.34550570  0.80801560  0.48061108    -0.50710
C215        C  0.33883359  0.78755962  0.43997362     0.74230
O216        O  0.44177189  0.97086650  0.42337041    -0.67360
O217        O  0.47833309  0.92039929  0.43118860    -0.54560
C218        C  0.46425135  0.96053575  0.41647004     0.72610
Zr219      Zr  0.41508871  0.93627602  0.46993835     2.77540
O220        O  0.39232359  0.98949452  0.40741443    -0.98110
O221        O  0.42607026  0.01831460  0.51573934    -0.78930
Zr222      Zr  0.39828367  0.79440937  0.41162401     2.70070
O223        O  0.36784546  0.82422875  0.34303371    -0.80180
O224        O  0.39425055  0.70271952  0.38313338    -0.99260
Zr225      Zr  0.46844453  0.84168799  0.46316921     2.21500
Zr226      Zr  0.38698586  0.82672346  0.52932488     2.11130
O227        O  0.38631061  0.86245504  0.45740740    -2.47950
O228        O  0.42608007  0.86845595  0.42317350    -0.79970
O229        O  0.41465192  0.90230528  0.54175455    -0.72160
O230        O  0.44109954  0.76569651  0.44702924    -2.33120
O231        O  0.45679079  0.90971168  0.51185169    -2.29330
O232        O  0.40055611  0.76009234  0.48201342    -0.73920
H233        H  0.42907257  0.77659817  0.59455205     0.78070
H234        H  0.44696053  0.73986667  0.42737797     0.79160
H235        H  0.36887970  0.87189413  0.44101911     0.81390
H236        H  0.46885947  0.93847291  0.51666026     0.78990
H237        H  0.43529151  0.64735471  0.44993575     0.42030
H238        H  0.38720954  0.68468502  0.40514926     0.41000
H239        H  0.36510118  0.86207376  0.35008446     0.40680
H240        H  0.37662903  0.96913714  0.39126073     0.38610
H241        H  0.42022747  0.01337721  0.54337042     0.41740
H242        H  0.46642103  0.98236607  0.58131212     0.36530
H243        H  0.98772838  0.83508934  0.66493043     0.42640
H244        H  0.46910804  0.66560314  0.58886712     0.39060
H245        H  0.38569075  0.02076747  0.42183194     0.43980
H246        H  0.48406292  0.96274542  0.62699896     0.42700
H247        H  0.48275593  0.72050577  0.60066309     0.42840
H248        H  0.37969806  0.70276338  0.35514102     0.43190
O249        O  0.28174534  0.49841334  0.12450835    -0.75680
O250        O  0.25991093  0.44083181  0.15480616    -0.54580
C251        C  0.26574526  0.48730049  0.14808869     0.78050
O252        O  0.29093537  0.30804088  0.94131389    -0.60280
O253        O  0.33504858  0.30604266  0.96644505    -0.53310
C254        C  0.31363119  0.30339788  0.93459474     0.70070
O255        O  0.22803734  0.33324251  0.01257149    -0.74840
O256        O  0.23198422  0.39508201  0.06879456    -0.55400
C257        C  0.22085926  0.37644714  0.02794081     0.76070
O258        O  0.33156162  0.46613272  0.02967634    -0.59980
O259        O  0.36439023  0.40677878  0.04153674    -0.53100
C260        C  0.35519529  0.45494189  0.03369575     0.72660
Zr261      Zr  0.31130631  0.44609416  0.08618237     2.54710
O262        O  0.29921047  0.53313663  0.05720718    -0.80550
O263        O  0.34782868  0.49156706  0.13883311    -0.93960
Zr264      Zr  0.27102594  0.32774506  0.00313303     2.64680
O265        O  0.25288439  0.38733952  0.94303686    -0.98920
O266        O  0.24672350  0.25518465  0.95651428    -0.80980
O267        O  0.27281945  0.39814754  0.05990838    -0.84340
O268        O  0.30882428  0.37902873  0.02449871    -2.19050
O269        O  0.39092998  0.33088884  0.15912253    -0.67730
O270        O  0.38849955  0.31369164  0.08426122    -0.52290
C271        C  0.40163922  0.32100131  0.12560351     0.71040
O272        O  0.25542633  0.22065682  0.12525595    -0.60630
O273        O  0.23915780  0.30202488  0.13860628    -0.52610
C274        C  0.23788622  0.25212135  0.13580973     0.72850
O275        O  0.32716651  0.17174033  0.07744665    -0.72030
O276        O  0.35383497  0.21705184  0.04486854    -0.50710
C277        C  0.34551194  0.17355563  0.05799240     0.74230
O278        O  0.32506467  0.34063378  0.23398385    -0.67360
O279        O  0.28096101  0.35335555  0.20895244    -0.54560
C280        C  0.30215246  0.34541945  0.24024489     0.72610
Zr281      Zr  0.34584745  0.34046903  0.17211185     2.77540
O282        O  0.36925104  0.27589104  0.22406020    -0.98110
O283        O  0.36807157  0.41279402  0.22220152    -0.78930
Zr284      Zr  0.29710173  0.23027510  0.09994161     2.70070
O285        O  0.31170408  0.17661918  0.16550210    -0.80180
O286        O  0.27284382  0.15932022  0.05065217    -0.99260
Zr287      Zr  0.27019371  0.35863838  0.12629375     2.21500
Zr288      Zr  0.34324705  0.31686109  0.04868413     2.11130
O289        O  0.33893159  0.27357458  0.11430222    -2.47950
O290        O  0.30424139  0.29819563  0.15610337    -0.79970
O291        O  0.34685857  0.38521921  0.10750695    -0.72160
O292        O  0.26490488  0.28994600  0.06850940    -2.33120
O293        O  0.31091800  0.40288557  0.15133607    -2.29330
O294        O  0.30377797  0.26672038  0.03263292    -0.73920
H295        H  0.30990871  0.39286870  0.99630990     0.78070
H296        H  0.24845178  0.27203683  0.06096432     0.79160
H297        H  0.35292386  0.24865309  0.12402447     0.81390
H298        H  0.31137351  0.42763501  0.17677007     0.78990
H299        H  0.23291836  0.27236379  0.93330095     0.42030
H300        H  0.27810570  0.16019115  0.02193753     0.41000
H301        H  0.32958104  0.18898423  0.18042708     0.40680
H302        H  0.37720548  0.25113258  0.20528963     0.38610
H303        H  0.38123697  0.42460161  0.20741013     0.41740
H304        H  0.34245232  0.49748778  0.16737494     0.36530
H305        H  0.29445725  0.52855309  0.02358735     0.42640
H306        H  0.26799685  0.40546391  0.93781582     0.39060
H307        H  0.38412416  0.29552861  0.24428875     0.43980
H308        H  0.34743357  0.52713752  0.12711521     0.42700
H309        H  0.24620964  0.36435125  0.91521013     0.42840
H310        H  0.28064359  0.12643730  0.06432055     0.43190
O311        O  0.29565126  0.48668443  0.66187926    -0.75680
O312        O  0.26866819  0.42778140  0.67949213    -0.54580
C313        C  0.27916766  0.47305584  0.68299930     0.78050
O314        O  0.28337353  0.35563289  0.44200094    -0.60280
O315        O  0.32601781  0.33084809  0.45714597    -0.53310
C316        C  0.30423398  0.34399603  0.42987331     0.70070
O317        O  0.22839854  0.38011361  0.52670007    -0.74840
O318        O  0.22795121  0.37387488  0.60077027    -0.55400
C319        C  0.21693019  0.38212952  0.55852862     0.76070
O320        O  0.34391467  0.48169434  0.57103501    -0.59980
O321        O  0.35916521  0.41722919  0.52884927    -0.53100
C322        C  0.35710367  0.46688295  0.54359204     0.72660
Zr323      Zr  0.31767486  0.44226898  0.60956447     2.54710
O324        O  0.29780447  0.52334830  0.57745745    -0.80550
O325        O  0.35313695  0.48417022  0.66757611    -0.93960
Zr326      Zr  0.26894200  0.36098548  0.51145145     2.64680
O327        O  0.25397653  0.44456390  0.47870579    -0.98920
O328        O  0.23678633  0.31122775  0.45298394    -0.80980
O329        O  0.27560212  0.40811564  0.58341990    -0.84340
O330        O  0.31016480  0.39812683  0.53585718    -2.19050
O331        O  0.39005200  0.30167573  0.64396499    -0.67730
O332        O  0.38541598  0.31049171  0.56810011    -0.52290
C333        C  0.39920305  0.30220233  0.60835394     0.71040
O334        O  0.24902740  0.21412663  0.59701908    -0.60630
O335        O  0.24168311  0.28369085  0.64262105    -0.52610
C336        C  0.23529984  0.23909737  0.62135239     0.72850
O337        O  0.31817803  0.17667202  0.54119967    -0.72030
O338        O  0.34810726  0.22750280  0.52102292    -0.50710
C339        C  0.33809075  0.18189420  0.52613584     0.74230
O340        O  0.33267549  0.30910020  0.73322727    -0.67360
O341        O  0.28904126  0.32700251  0.71850361    -0.54560
C342        C  0.31147213  0.31594515  0.74539871     0.72610
Zr343      Zr  0.34719314  0.31219466  0.66457869     2.77540
O344        O  0.36509624  0.22965957  0.69666437    -0.98110
O345        O  0.37794731  0.36617921  0.72185544    -0.78930
Zr346      Zr  0.29060949  0.23120539  0.57451210     2.70070
O347        O  0.30143937  0.15635948  0.62243305    -0.80180
O348        O  0.26285053  0.18180272  0.50949434    -0.99260
Zr349      Zr  0.27314083  0.34737829  0.63827378     2.21500
Zr350      Zr  0.33986643  0.32608902  0.53904890     2.11130
O351        O  0.33429868  0.26638194  0.59415590    -2.47950
O352        O  0.30366087  0.27642913  0.64627875    -0.79970
O353        O  0.34939579  0.37411132  0.61127711    -0.72160
O354        O  0.26256809  0.30314773  0.56511409    -2.33120
O355        O  0.31628300  0.38155889  0.66329110    -2.29330
O356        O  0.29715429  0.28778382  0.51786242    -0.73920
H357        H  0.31128161  0.42207203  0.51308793     0.78070
H358        H  0.24474558  0.29165695  0.55518972     0.79160
H359        H  0.34696786  0.23829237  0.59840802     0.81390
H360        H  0.31953457  0.39913268  0.69314286     0.78990
H361        H  0.23334255  0.27975289  0.46804355     0.42030
H362        H  0.26966280  0.18951171  0.48338911     0.41000
H363        H  0.29694096  0.16801057  0.65094397     0.40680
H364        H  0.37302841  0.21209974  0.67374733     0.38610
H365        H  0.38455629  0.39161345  0.70431156     0.41740
H366        H  0.34998551  0.47577866  0.69692055     0.36530
H367        H  0.27984977  0.51334925  0.56055591     0.42640
H368        H  0.26978617  0.46248619  0.47622735     0.39060
H369        H  0.38008841  0.24041990  0.72236404     0.43980
H370        H  0.34943356  0.52238141  0.66534533     0.42700
H371        H  0.24446783  0.43427034  0.44700753     0.42840
H372        H  0.26743675  0.14438987  0.51500345     0.43190
O373        O  0.07815247  0.00486495  0.17971662    -0.75680
O374        O  0.06004691  0.97913731  0.23197129    -0.54580
C375        C  0.06417243  0.97229231  0.19234107     0.78050
O376        O  0.14574749  0.18563832  0.20035958    -0.60280
O377        O  0.11834569  0.25248621  0.17056645    -0.53310
C378        C  0.14076967  0.22778492  0.17904223     0.70070
O379        O  0.14387256  0.04784632  0.27397433    -0.74840
O380        O  0.11400010  0.01019784  0.30385211    -0.55400
C381        C  0.13650077  0.01262241  0.29596510     0.76070
O382        O  0.06880340  0.12988980  0.08889375    -0.59980
O383        O  0.07036836  0.21922171  0.10206585    -0.53100
C384        C  0.07084015  0.17659747  0.07681210     0.72660
Zr385      Zr  0.05973261  0.08755629  0.15122454     2.54710
O386        O  0.05926310  0.02290106  0.08887291    -0.80550
O387        O  0.01467695  0.08556415  0.10515903    -0.93960
Zr388      Zr  0.12622324  0.12690698  0.23832253     2.64680
O389        O  0.14758803  0.07301756  0.19001770    -0.98920
O390        O  0.16675196  0.15512429  0.29225629    -0.80980
O391        O  0.09278395  0.06465730  0.21656765    -0.84340
O392        O  0.09413269  0.14855295  0.17200702    -2.19050
O393        O  0.00415089  0.23800534  0.19304639    -0.67730
O394        O  0.03183759  0.27874707  0.15994878    -0.52290
C395        C  0.00956171  0.27385949  0.16957561     0.71040
O396        O  0.07931922  0.16281121  0.37274497    -0.60630
O397        O  0.07755880  0.07366033  0.36098880    -0.52610
C398        C  0.07686753  0.11648850  0.38560300     0.72850
O399        O  0.08118664  0.30033469  0.29925862    -0.72030
O400        O  0.07858071  0.31746682  0.22575367    -0.50710
C401        C  0.07749109  0.33167323  0.26657593     0.74230
O402        O  0.00606197  0.10415595  0.27779842    -0.67360
O403        O  0.03558491  0.03816872  0.30010988    -0.54560
C404        C  0.01389702  0.06198791  0.29883400     0.72610
Zr405      Zr  0.02297057  0.16226512  0.23136735     2.77540
O406        O  0.00314086  0.21438917  0.28311298    -0.98110
O407        O  0.48152212  0.13143259  0.18217229    -0.78930
Zr408      Zr  0.09048203  0.20766633  0.31276386     2.70070
O409        O  0.09386929  0.25702494  0.38485068    -0.80180
O410        O  0.13714286  0.21795501  0.34474559    -0.99260
Zr411      Zr  0.07431855  0.06109057  0.27930032     2.21500
Zr412      Zr  0.07497455  0.23154606  0.18488331     2.11130
O413        O  0.05606876  0.22587530  0.24792577    -2.47950
O414        O  0.05681381  0.14442569  0.29551491    -0.79970
O415        O  0.04054377  0.16816728  0.16725443    -0.72160
O416        O  0.10870376  0.12422006  0.30125630    -2.33120
O417        O  0.04084124  0.08197521  0.21331492    -2.29330
O418        O  0.10916913  0.21180662  0.25127886    -0.73920
H419        H  0.10375472  0.14985873  0.14960059     0.78070
H420        H  0.12162788  0.11467354  0.32839301     0.79160
H421        H  0.04637973  0.25720450  0.25225040     0.81390
H422        H  0.02725901  0.05649395  0.20841859     0.78990
H423        H  0.16805723  0.13474164  0.31943449     0.42030
H424        H  0.13994700  0.25645970  0.34660760     0.41000
H425        H  0.07580244  0.26043187  0.38758880     0.40680
H426        H  0.01227070  0.24859878  0.28871033     0.38610
H427        H  0.46827545  0.14832163  0.19584590     0.41740
H428        H  0.00367350  0.08627863  0.12655717     0.36530
H429        H  0.07774176  0.01844564  0.08880085     0.42640
H430        H  0.13930444  0.08323889  0.15865532     0.39060
H431        H  0.48534715  0.22262257  0.26479290     0.43980
H432        H  0.01182724  0.05085332  0.08834904     0.42700
H433        H  0.16550586  0.08690570  0.19705096     0.42840
H434        H  0.14036686  0.20850209  0.37678355     0.43190
O435        O  0.08438922  0.99733183  0.71418504    -0.75680
O436        O  0.06388207  0.98054978  0.76478383    -0.54580
C437        C  0.06939130  0.96729030  0.72716375     0.78050
O438        O  0.14354752  0.20850909  0.71959526    -0.60280
O439        O  0.11601673  0.22213969  0.65180316    -0.53310
C440        C  0.13968290  0.21569359  0.67745575     0.70070
O441        O  0.14720813  0.07653986  0.80692099    -0.74840
O442        O  0.11572019  0.03872779  0.83261992    -0.55400
C443        C  0.13952637  0.04539776  0.83202606     0.76070
O444        O  0.07158707  0.09282968  0.59280910    -0.59980
O445        O  0.06713200  0.18193139  0.59059932    -0.53100
C446        C  0.06906617  0.13563464  0.57176785     0.72660
Zr447      Zr  0.06613056  0.06772978  0.66463264     2.54710
O448        O  0.07696869  0.99942322  0.61286928    -0.80550
O449        O  0.01924448  0.07679565  0.62696902    -0.93960
Zr450      Zr  0.12655312  0.13683583  0.75049619     2.64680
O451        O  0.15029084  0.08125083  0.70707981    -0.98920
O452        O  0.16401499  0.17065489  0.80935583    -0.80980
O453        O  0.09682771  0.06681090  0.73705008    -0.84340
O454        O  0.09711995  0.13454854  0.67680552    -2.19050
O455        O  0.99944829  0.21060400  0.66587676    -0.67730
O456        O  0.02782487  0.25122385  0.63401696    -0.52290
C457        C  0.00471679  0.24313851  0.63929770     0.71040
O458        O  0.07328917  0.19662608  0.86999132    -0.60630
O459        O  0.07560571  0.10688127  0.87209876    -0.52610
C460        C  0.07353190  0.15360872  0.89000373     0.72850
O461        O  0.07578932  0.31010222  0.76833614    -0.72030
O462        O  0.07539017  0.30526912  0.69297628    -0.50710
C463        C  0.07513322  0.33050470  0.73057412     0.74230
O464        O  0.50296024  0.10091832  0.77613541    -0.67360
O465        O  0.03579312  0.05180772  0.81853934    -0.54560
C466        C  0.51210937  0.06828676  0.80759611     0.72610
Zr467      Zr  0.01935389  0.15014596  0.72160889     2.77540
O468        O  0.99451554  0.21175867  0.75817000    -0.98110
O469        O  0.48061662  0.10514991  0.67536834    -0.78930
Zr470      Zr  0.07986020  0.22423917  0.79966680     2.70070
O471        O  0.06227427  0.29295717  0.84206425    -0.80180
O472        O  0.12343336  0.24879049  0.84383140    -0.99260
Zr473      Zr  0.07367925  0.07316516  0.79431041     2.21500
Zr474      Zr  0.07211588  0.21353721  0.67003500     2.11130
O475        O  0.04888491  0.22087151  0.72837316    -2.47950
O476        O  0.05026726  0.15397440  0.79187037    -0.79970
O477        O  0.04144084  0.14489341  0.66237373    -0.72160
O478        O  0.10359886  0.14471382  0.80689038    -2.33120
O479        O  0.04237222  0.07013557  0.72121785    -2.29330
O480        O  0.10295970  0.21723993  0.74349261    -0.73920
H481        H  0.10691375  0.12979043  0.65444879     0.78070
H482        H  0.11531856  0.14435686  0.83703074     0.79160
H483        H  0.03889475  0.25315282  0.72578741     0.81390
H484        H  0.03035176  0.04128251  0.71733954     0.78990
H485        H  0.15827891  0.17516057  0.83762587     0.42030
H486        H  0.12797554  0.27873340  0.82816625     0.41000
H487        H  0.04317810  0.28970850  0.82997947     0.40680
H488        H  0.00128754  0.24708338  0.75566091     0.38610
H489        H  0.46592340  0.12492954  0.68269991     0.41740
H490        H  0.50859328  0.04757902  0.63206872     0.36530
H491        H  0.09548942  0.99098162  0.62670973     0.42640
H492        H  0.15278298  0.10309644  0.68281434     0.39060
H493        H  0.47672720  0.21135323  0.73748015     0.43980
H494        H  0.01755422  0.07541290  0.59384579     0.42700
H495        H  0.16790896  0.07731743  0.72762414     0.42840
H496        H  0.12100986  0.26445204  0.87288291     0.43190
C497        C  0.07222117  0.11545180  0.43150849    -0.06510
C498        C  0.05858409  0.15844784  0.44569912    -0.17640
C499        C  0.05641229  0.16536234  0.49032934     0.10690
C500        C  0.06897608  0.12956902  0.52289577    -0.06430
C501        C  0.08155807  0.08516796  0.50818238    -0.17670
C502        C  0.08283363  0.07724279  0.46300672     0.10720
S503        S  0.03661617  0.21962230  0.50268380    -0.32630
S504        S  0.09946672  0.01926491  0.44864026    -0.32640
H505        H  0.07794225  0.00117076  0.41378434     0.28730
H506        H  0.02439867  0.19040553  0.52885602     0.28720
H507        H  0.04942180  0.18729006  0.42160483     0.19320
H508        H  0.09082566  0.05635478  0.53219759     0.19320
C509        C  0.07202272  0.15973233  0.93753258    -0.06510
C510        C  0.09056121  0.13379477  0.97051189    -0.17640
C511        C  0.09211555  0.14292751  0.01664040     0.10690
C512        C  0.07442593  0.17831822  0.03067442    -0.06430
C513        C  0.05615048  0.20514096  0.99773765    -0.17670
C514        C  0.05454148  0.19574253  0.95134145     0.10720
S515        S  0.11709638  0.10749252  0.05595760    -0.32630
S516        S  0.02857575  0.22799900  0.91131732    -0.32640
H517        H  0.02459640  0.18673603  0.87744096     0.28730
H518        H  0.12182384  0.14805727  0.09019950     0.28720
H519        H  0.10441122  0.10717716  0.96035038     0.19320
H520        H  0.04192301  0.23068588  0.00790816     0.19320
C521        C  0.42731813  0.29066894  0.61203391    -0.06510
C522        C  0.44666574  0.32641745  0.63560908    -0.17640
C523        C  0.47316343  0.31752726  0.63683017     0.10690
C524        C  0.48083687  0.27157314  0.61533288    -0.06430
C525        C  0.46111997  0.23932798  0.58774297    -0.17670
C526        C  0.43482426  0.24786374  0.58630396     0.10720
S527        S  0.49752025  0.36409014  0.66669603    -0.32630
S528        S  0.41199615  0.19985152  0.55366240    -0.32640
H529        H  0.39585761  0.20248109  0.58336063     0.28730
H530        H  0.98061233  0.39921648  0.68221543     0.28720
H531        H  0.44100901  0.36122536  0.65290813     0.19320
H532        H  0.46651536  0.20328550  0.57162300     0.19320
C533        C  0.16412330  0.21513653  0.65979169    -0.06510
C534        C  0.16292279  0.22743122  0.61479462    -0.17640
C535        C  0.18557890  0.22796135  0.59853532     0.10690
C536        C  0.21055301  0.21735082  0.62759495    -0.06430
C537        C  0.21157258  0.20183846  0.67097272    -0.17670
C538        C  0.18927092  0.19935662  0.68707839     0.10720
S539        S  0.18132632  0.24255966  0.54022639    -0.32630
S540        S  0.19517964  0.17720949  0.74397897    -0.32640
H541        H  0.21773714  0.14732014  0.74412961     0.28730
H542        H  0.20498006  0.22052085  0.53592829     0.28720
H543        H  0.14428188  0.23712611  0.59209167     0.19320
H544        H  0.23053665  0.19465574  0.69383552     0.19320
C545        C  0.31472878  0.29847644  0.88646450    -0.06510
C546        C  0.33524244  0.32285458  0.87490467    -0.17640
C547        C  0.33473543  0.32932187  0.82950078     0.10690
C548        C  0.31320667  0.31055575  0.79414071    -0.06430
C549        C  0.29319954  0.28431281  0.80562518    -0.17670
C550        C  0.29398375  0.27699657  0.85102290     0.10720
S551        S  0.36159034  0.36477603  0.81995096    -0.32630
S552        S  0.26832729  0.23820293  0.86101141    -0.32640
H553        H  0.28413418  0.21554120  0.89991427     0.28730
H554        H  0.34684039  0.39134526  0.78258088     0.28720
H555        H  0.35117859  0.33980294  0.90149720     0.19320
H556        H  0.27707278  0.26820067  0.77891627     0.19320
C557        C  0.30049837  0.34139226  0.28727942    -0.06510
C558        C  0.28744855  0.38110236  0.30624656    -0.17640
C559        C  0.28876349  0.38373782  0.35267006     0.10690
C560        C  0.30287936  0.34484632  0.38088906    -0.06430
C561        C  0.31533490  0.30427049  0.36142622    -0.17670
C562        C  0.31402575  0.30174114  0.31502739     0.10720
S563        S  0.27355363  0.43997701  0.37372310    -0.32630
S564        S  0.32926905  0.24593901  0.29302280    -0.32640
H565        H  0.31136019  0.24304556  0.24982083     0.28730
H566        H  0.29176730  0.44441809  0.41630830     0.28720
H567        H  0.27732340  0.41195719  0.28523546     0.19320
H568        H  0.32569021  0.27355088  0.38232377     0.19320
C569        C  0.43095334  0.31803188  0.13368790    -0.06510
C570        C  0.44734498  0.33863765  0.17487718    -0.17640
C571        C  0.47466578  0.33408172  0.18442401     0.10690
C572        C  0.48657281  0.30830655  0.15248380    -0.06430
C573        C  0.47052941  0.29311152  0.10965322    -0.17670
C574        C  0.44326212  0.29620608  0.10018216     0.10720
S575        S  0.49348627  0.35711277  0.24019423    -0.32630
S576        S  0.42601054  0.26552303  0.04606868    -0.32640
H577        H  0.41202594  0.23168305  0.06559601     0.28730
H578        H  0.01753132  0.35480121  0.22960421     0.28720
H579        H  0.43887966  0.35697954  0.20058374     0.19320
H580        H  0.47911123  0.27183435  0.08533027     0.19320
C581        C  0.21368735  0.23387540  0.14515852    -0.06510
C582        C  0.19025486  0.23883277  0.11059575    -0.17640
C583        C  0.16582543  0.24445700  0.12043588     0.10690
C584        C  0.16432116  0.24525566  0.16601974    -0.06430
C585        C  0.18798027  0.24234010  0.20040667    -0.17670
C586        C  0.21214693  0.23591336  0.19059876     0.10720
S587        S  0.13745566  0.25135848  0.07353404    -0.32630
S588        S  0.24075057  0.23297083  0.23797071    -0.32640
H589        H  0.25649267  0.20584708  0.21365104     0.28730
H590        H  0.12398216  0.28472377  0.09788791     0.28720
H591        H  0.19115277  0.24154989  0.07574144     0.19320
H592        H  0.18746155  0.24175788  0.23565105     0.19320
C593        C  0.05272743  0.93182722  0.69084846    -0.06510
C594        C  0.04083340  0.95711709  0.65155825    -0.17640
C595        C  0.53156660  0.93124376  0.60944602     0.10690
C596        C  0.03116588  0.87645074  0.60554383    -0.06430
C597        C  0.04149966  0.84900483  0.64572820    -0.17670
C598        C  0.05274767  0.87622937  0.68824117     0.10720
S599        S  0.51984376  0.97094676  0.56183219    -0.32630
S600        S  0.06543263  0.83845035  0.73736463    -0.32640
H601        H  0.06645090  0.87986640  0.77024409     0.28730
H602        H  0.53637170  0.94523645  0.53827172     0.28720
H603        H  0.54106189  0.99857763  0.65304615     0.19320
H604        H  0.03997768  0.80649882  0.64429568     0.19320
C605        C  0.47492553  0.99596224  0.38903597    -0.06510
C606        C  0.45983222  0.01052156  0.34611533    -0.17640
C607        C  0.47143636  0.03399602  0.31561128     0.10690
C608        C  0.49871605  0.04145699  0.32803251    -0.06430
C609        C  0.01305940  0.03014950  0.37184862    -0.17670
C610        C  0.00147115  0.00924715  0.40241405     0.10720
S611        S  0.45073901  0.05149310  0.26142186    -0.32630
S612        S  0.02155259  0.00299994  0.45892307    -0.32640
H613        H  0.00134580  0.01903495  0.47850433     0.28730
H614        H  0.46916195  0.04058004  0.23658915     0.28720
H615        H  0.43928452  0.00131962  0.33546625     0.19320
H616        H  0.03365485  0.03863264  0.38287958     0.19320
C617        C  0.37637419  0.62967692  0.53948483    -0.06510
C618        C  0.35898295  0.60410064  0.50148221    -0.17640
C619        C  0.35519444  0.54844826  0.49781353     0.10690
C620        C  0.36959864  0.51513693  0.53174716    -0.06430
C621        C  0.38778534  0.54090880  0.56858711    -0.17670
C622        C  0.39090453  0.59632626  0.57313846     0.10720
S623        S  0.33090323  0.52210422  0.44918266    -0.32630
S624        S  0.41426943  0.62264644  0.62346912    -0.32640
H625        H  0.40295496  0.67311815  0.62360980     0.28730
H626        H  0.34033486  0.47000393  0.45193091     0.28720
H627        H  0.34880123  0.62738107  0.47352858     0.19320
H628        H  0.39815025  0.51785727  0.59662060     0.19320
C629        C  0.34974686  0.12880665  0.51849800    -0.06510
C630        C  0.36409324  0.10302617  0.55737235    -0.17640
C631        C  0.36738087  0.04742994  0.55775197     0.10690
C632        C  0.35575084  0.01485714  0.51863747    -0.06430
C633        C  0.34089607  0.04083948  0.48027014    -0.17670
C634        C  0.33793665  0.09617640  0.47974720     0.10720
S635        S  0.38707194  0.02055213  0.60894103    -0.32630
S636        S  0.31780179  0.12306180  0.42873609    -0.32640
H637        H  0.32911065  0.17337875  0.43640303     0.28730
H638        H  0.37031472  0.97813213  0.60700210     0.28720
H639        H  0.37171121  0.12625014  0.58884037     0.19320
H640        H  0.33218811  0.01760539  0.44922537     0.19320
C641        C  0.41083096  0.83668411  0.69181863    -0.06510
C642        C  0.43443622  0.81935731  0.72058498    -0.17640
C643        C  0.43710853  0.81073025  0.76619777     0.10690
C644        C  0.41579696  0.82055046  0.78482851    -0.06430
C645        C  0.39185487  0.83631565  0.75593517    -0.17670
C646        C  0.38918792  0.84477462  0.70985590     0.10720
S647        S  0.96803903  0.78507771  0.79783806    -0.32630
S648        S  0.35824631  0.86838720  0.67692048    -0.32640
H649        H  0.36895471  0.90337661  0.65294525     0.28730
H650        H  0.95718880  0.75011320  0.82174618     0.28720
H651        H  0.45109038  0.81117288  0.70717421     0.19320
H652        H  0.37531256  0.84412818  0.76970695     0.19320
C653        C  0.43164910  0.82163479  0.20371073    -0.06510
C654        C  0.42391054  0.77606271  0.22000454    -0.17640
C655        C  0.42955026  0.76895275  0.26697349     0.10690
C656        C  0.44277138  0.80880782  0.29872661    -0.06430
C657        C  0.45126508  0.85359238  0.28236826    -0.17670
C658        C  0.44599082  0.86024298  0.23537076     0.10720
S659        S  0.42013009  0.70830101  0.28619150    -0.32630
S660        S  0.45605084  0.92021342  0.21639531    -0.32640
H661        H  0.47419301  0.93523037  0.25764505     0.28730
H662        H  0.40827059  0.68482614  0.24294487     0.28720
H663        H  0.41393832  0.74555421  0.19579076     0.19320
H664        H  0.46058831  0.88490976  0.30639616     0.19320
C665        C  0.02796581  0.89069487  0.06653214    -0.06510
C666        C  0.01671865  0.93458445  0.08370379    -0.17640
C667        C  0.02528209  0.95167101  0.12953263     0.10690
C668        C  0.04940279  0.93478896  0.15632058    -0.06430
C669        C  0.06235970  0.89377514  0.13811752    -0.17670
C670        C  0.05061053  0.86877797  0.09513514     0.10720
S671        S  0.00233558  0.98588307  0.15452880    -0.32630
S672        S  0.06399635  0.80809478  0.07781496    -0.32640
H673        H  0.07334846  0.79167369  0.12248070     0.28730
H674        H  0.01141686  0.96463779  0.19743008     0.28720
H675        H  0.99878987  0.95016700  0.06347001     0.19320
H676        H  0.08121839  0.88053457  0.15775747     0.19320
C677        C  0.49493635  0.04854438  0.83461168    -0.06510
C678        C  0.00595123  0.04269314  0.88141566    -0.17640
C679        C  0.49234446  0.01891410  0.90838832     0.10690
C680        C  0.46689214  0.00007265  0.88871811    -0.06430
C681        C  0.45512751  0.00872062  0.84270932    -0.17670
C682        C  0.46884230  0.03239291  0.81545863     0.10720
S683        S  0.00915507  0.01063552  0.96728085    -0.32630
S684        S  0.45280754  0.03593272  0.75579288    -0.32640
H685        H  0.47462824  0.01932906  0.74084557     0.28730
H686        H  0.98668987  0.00987506  0.98307730     0.28720
H687        H  0.02571535  0.05561382  0.89704858     0.19320
H688        H  0.43586004  0.99321761  0.82698362     0.19320
C689        C  0.38060512  0.61724286  0.04322651    -0.06510
C690        C  0.36600511  0.59311720  0.00182458    -0.17640
C691        C  0.36110513  0.53823223  0.99597597     0.10690
C692        C  0.37055304  0.50409029  0.03220650    -0.06430
C693        C  0.38579003  0.52793948  0.07341936    -0.17670
C694        C  0.39107437  0.58305378  0.07900329     0.10720
S695        S  0.34171746  0.51373682  0.94098848    -0.31990
S696        S  0.41136721  0.60775235  0.13307916    -0.32640
H697        H  0.40244268  0.66016242  0.12941653     0.28730
H698        H  0.35039721  0.46119377  0.94549487     0.28720
H699        H  0.35917338  0.61710667  0.97275515     0.19320
H700        H  0.39242043  0.50402561  0.10255844     0.19320
C701        C  0.36011735  0.00443202  0.05216442    -0.06510
C702        C  0.37765172  0.03798515  0.08392875    -0.17640
C703        C  0.37524363  0.09394554  0.08418073     0.10690
C704        C  0.35548771  0.11866590  0.05055883    -0.06430
C705        C  0.33769714  0.08487185  0.01980658    -0.17670
C706        C  0.33939017  0.02948432  0.02088501     0.10720
S707        S  0.39789950  0.13125571  0.12910043    -0.32630
S708        S  0.31493046  0.99194212  0.97920960    -0.32640
H709        H  0.31883760  0.94498589  0.00238627     0.28730
H710        H  0.39217778  0.18108949  0.11148136     0.28720
H711        H  0.39429089  0.02063000  0.10726267     0.19320
H712        H  0.32120651  0.10201928  0.99591608     0.19320
C713        C  0.18383255  0.44370239  0.90279232    -0.06510
C714        C  0.20703091  0.46417387  0.93114815    -0.17640
C715        C  0.21617432  0.45014337  0.97637455     0.10690
C716        C  0.20448704  0.40861847  0.99228513    -0.06430
C717        C  0.18222485  0.38509215  0.96263294    -0.17670
C718        C  0.17124212  0.40380218  0.91908275     0.10720
S719        S  0.24371807  0.48522827  0.01176287    -0.32630
S720        S  0.14048827  0.37860590  0.88477697    -0.32640
H721        H  0.13487956  0.34936489  0.91869251     0.28730
H722        H  0.23318356  0.49027742  0.04946520     0.28720
H723        H  0.21649426  0.49589411  0.91965011     0.19320
H724        H  0.17371462  0.35150539  0.97342566     0.19320
C725        C  0.24041238  0.56099945  0.76486462    -0.06510
C726        C  0.26047048  0.52715344  0.78551197    -0.17640
C727        C  0.27592099  0.50228330  0.76017988     0.10690
C728        C  0.27100188  0.51139050  0.71351792    -0.06430
C729        C  0.25248740  0.54873769  0.69396981    -0.17670
C730        C  0.23725924  0.57409387  0.71944744     0.10720
S731        S  0.30035715  0.45653848  0.78808443    -0.32630
S732        S  0.21361357  0.62129464  0.69194223    -0.32640
H733        H  0.21849216  0.65707810  0.73003196     0.28730
H734        H  0.31664311  0.46314885  0.75939623     0.28720
H735        H  0.26326085  0.51813189  0.82076892     0.19320
H736        H  0.24869215  0.55553828  0.65805180     0.19320
C737        C  0.24751184  0.79745174  0.94742118    -0.06510
C738        C  0.26353270  0.77583405  0.98632918    -0.17640
C739        C  0.29074729  0.77419724  0.99389430     0.10690
C740        C  0.30267511  0.79486280  0.96208315    -0.06430
C741        C  0.28668997  0.81952528  0.92473281    -0.17670
C742        C  0.25947851  0.82148675  0.91733624     0.10720
S743        S  0.30900610  0.74005556  0.04230028    -0.32630
S744        S  0.23994234  0.85379995  0.86842014    -0.32640
H745        H  0.26046124  0.86777206  0.85054049     0.28730
H746        H  0.31706125  0.78742324  0.06797245     0.28720
H747        H  0.25475032  0.75601099  0.00897869     0.19320
H748        H  0.29559178  0.83743400  0.90130867     0.19320
C749        C  0.02453328  0.74126670  0.96463414    -0.06510
C750        C  0.03123852  0.77873479  0.93735525    -0.17640
C751        C  0.05612089  0.78174423  0.93129509     0.10690
C752        C  0.07576224  0.74741175  0.95375610    -0.06430
C753        C  0.07002793  0.71302980  0.98438558    -0.17670
C754        C  0.04467534  0.70988559  0.99041586     0.10720
S755        S  0.06020057  0.82521562  0.88898646    -0.32630
S756        S  0.03816858  0.66333663  0.02831449    -0.32640
H757        H  0.06430857  0.65051685  0.04868141     0.28730
H758        H  0.08737176  0.82478730  0.90142156     0.28720
H759        H  0.51658519  0.80501334  0.91844349     0.19320
H760        H  0.08489233  0.68549583  0.00063240     0.19320
C761        C  0.07689590  0.38734055  0.73183849    -0.06510
C762        C  0.09801401  0.40606992  0.71888236    -0.17640
C763        C  0.10641613  0.45737413  0.73042990     0.10690
C764        C  0.09081837  0.49346676  0.74947698    -0.06430
C765        C  0.06843679  0.47512698  0.75948455    -0.17670
C766        C  0.06199939  0.42187856  0.75296992     0.10720
S767        S  0.13952333  0.47032057  0.72895174    -0.32630
S768        S  0.03596737  0.40101663  0.77554103    -0.32640
H769        H  0.03198353  0.35089530  0.75330584     0.28730
H770        H  0.14162541  0.42940997  0.69700142     0.28720
H771        H  0.11007189  0.37835138  0.70513607     0.19320
H772        H  0.05689807  0.50160470  0.77548818     0.19320
C773        C  0.16341567  0.90404499  0.87177495    -0.06510
C774        C  0.17674802  0.92663762  0.84380470    -0.17640
C775        C  0.17517456  0.98066773  0.83842616     0.10690
C776        C  0.15880710  0.01077967  0.85963493    -0.06430
C777        C  0.15199454  0.99099611  0.89659814    -0.17670
C778        C  0.15287669  0.93712690  0.90157919     0.10720
S779        S  0.19123475  0.00892896  0.80034122    -0.32630
S780        S  0.13567844  0.91377760  0.93997994    -0.32640
H781        H  0.11847388  0.88451287  0.90462359     0.28730
H782        H  0.20590244  0.96397310  0.79365046     0.28720
H783        H  0.18678646  0.90172592  0.82386032     0.19320
H784        H  0.14085999  0.01547588  0.91502668     0.19320
C785        C  0.14645602  0.63661235  0.64815797    -0.06510
C786        C  0.15457756  0.67987600  0.62898517    -0.17640
C787        C  0.15377921  0.67922734  0.58284881     0.10690
C788        C  0.14616920  0.63304402  0.55450829    -0.06430
C789        C  0.13666025  0.59069222  0.57270008    -0.17670
C790        C  0.13610201  0.59253659  0.61861518     0.10720
S791        S  0.16124246  0.74017376  0.56201413    -0.32630
S792        S  0.11996272  0.53942344  0.63582593    -0.32640
H793        H  0.10813992  0.57212162  0.66342087     0.28730
H794        H  0.14218248  0.73414480  0.52024480     0.28720
H795        H  0.16165677  0.71500931  0.65012797     0.19320
H796        H  0.12947047  0.55601505  0.55103018     0.19320
C797        C  0.15923396  0.68214805  0.06519165    -0.06510
C798        C  0.14679334  0.72388815  0.08343704    -0.17640
C799        C  0.14415230  0.72311853  0.12789261     0.10690
C800        C  0.15376574  0.67939334  0.15379795    -0.06430
C801        C  0.16726528  0.63952906  0.13629554    -0.17670
C802        C  0.17056056  0.64080935  0.09285451     0.10720
S803        S  0.12913809  0.77917570  0.14983470    -0.32630
S804        S  0.19063978  0.59004965  0.07570286    -0.32640
H805        H  0.20289199  0.62460558  0.05367217     0.28730
H806        H  0.12039655  0.75293424  0.18216221     0.28720
H807        H  0.13856918  0.75637984  0.06269455     0.19320
H808        H  0.17597083  0.60781052  0.15718077     0.19320
C809        C  0.15974431  0.44917312  0.46727327    -0.06510
C810        C  0.16592796  0.47357100  0.51135976    -0.17640
C811        C  0.18093938  0.44723799  0.54852417     0.10690
C812        C  0.18920302  0.39528580  0.54131110    -0.06430
C813        C  0.17725302  0.36789764  0.49951278    -0.17670
C814        C  0.16395916  0.39492278  0.46168691     0.10720
S815        S  0.19240644  0.48435408  0.60205498    -0.32630
S816        S  0.15636448  0.35956190  0.40676296    -0.32640
H817        H  0.13973090  0.39753119  0.38234320     0.28730
H818        H  0.21890318  0.47310258  0.60724951     0.28720
H819        H  0.16208001  0.51520968  0.51588454     0.19320
H820        H  0.18359920  0.32830256  0.49291927     0.19320
C821        C  0.22600386  0.56740237  0.23490288    -0.06510
C822        C  0.25118676  0.58470206  0.23661900    -0.17640
C823        C  0.26460161  0.56355211  0.20547691     0.10690
C824        C  0.25184656  0.52754317  0.16990362    -0.06430
C825        C  0.22558085  0.51589928  0.16544671    -0.17670
C826        C  0.21299133  0.53323521  0.19819041     0.10720
S827        S  0.29833216  0.58035785  0.21515422    -0.32630
S828        S  0.18094060  0.50686028  0.19226306    -0.32640
H829        H  0.17089950  0.55069606  0.21223497     0.28730
H830        H  0.30688776  0.52860265  0.20846822     0.28720
H831        H  0.26114225  0.61162014  0.26431175     0.19320
H832        H  0.21555025  0.48805556  0.13850830     0.19320
C833        C  0.26138227  0.73713431  0.40681740    -0.06510
C834        C  0.26791673  0.77717378  0.38212656    -0.17640
C835        C  0.29345973  0.79425754  0.39129815     0.10690
C836        C  0.31248949  0.76984162  0.42507858    -0.06430
C837        C  0.30614875  0.72913601  0.44882338    -0.17670
C838        C  0.28079258  0.71232122  0.44000654     0.10720
S839        S  0.30036234  0.84748986  0.35978416    -0.32630
S840        S  0.27486417  0.65686108  0.46986438    -0.32640
H841        H  0.26360758  0.68875671  0.49890618     0.28730
H842        H  0.32110069  0.86902421  0.39433933     0.28720
H843        H  0.25299898  0.79575498  0.35620900     0.19320
H844        H  0.32111727  0.71055651  0.47469752     0.19320
C845        C  0.05927026  0.69084355  0.43088044    -0.06510
C846        C  0.06529502  0.71571341  0.47436435    -0.17640
C847        C  0.04704132  0.71771927  0.49938937     0.10690
C848        C  0.02230242  0.69599684  0.47971633    -0.06430
C849        C  0.01747428  0.66564577  0.43875728    -0.17670
C850        C  0.03560709  0.66372710  0.41349342     0.10720
S851        S  0.05527080  0.75241689  0.55442175    -0.32630
S852        S  0.02689740  0.62875464  0.35836362    -0.32640
H853        H  0.04221997  0.65886170  0.33826872     0.28730
H854        H  0.03434366  0.73302615  0.56858079     0.28720
H855        H  0.08432428  0.73296395  0.48898730     0.19320
H856        H  0.99824440  0.64958559  0.42348340     0.19320
C857        C  0.06905265  0.38649686  0.27539175    -0.06510
C858        C  0.06116205  0.41906803  0.23833674    -0.17640
C859        C  0.05413740  0.47148511  0.24490858     0.10690
C860        C  0.05767555  0.49310339  0.28970489    -0.06430
C861        C  0.05812096  0.45836451  0.32364442    -0.17670
C862        C  0.06539542  0.40601662  0.31808233     0.10720
S863        S  0.04306138  0.51025561  0.19579852    -0.32630
S864        S  0.07149384  0.36957851  0.36852344    -0.32640
H865        H  0.09757564  0.35978935  0.36903173     0.28730
H866        H  0.03345561  0.55197008  0.21925404     0.28720
H867        H  0.06057898  0.40412284  0.20412017     0.19320
H868        H  0.05807651  0.47388532  0.35748704     0.19320
C869        C  0.15487923  0.97006603  0.31061682    -0.06510
C870        C  0.16383282  0.94126989  0.27712880    -0.17640
C871        C  0.17434479  0.89105940  0.28518341     0.10690
C872        C  0.17508422  0.86958694  0.32700844    -0.06430
C873        C  0.17121414  0.90281473  0.36311861    -0.17670
C874        C  0.16074238  0.95295123  0.35511365     0.10720
S875        S  0.18239317  0.85369909  0.23877991    -0.32630
S876        S  0.15325326  0.99119080  0.40165861    -0.32640
H877        H  0.15342421  0.04051079  0.38316885     0.28730
H878        H  0.20474730  0.83071644  0.26675725     0.28720
H879        H  0.16035436  0.95570467  0.24329542     0.19320
H880        H  0.17298175  0.88716205  0.39610194     0.19320
O881        O  0.65076150  0.80479555  0.34651124    -0.75680
O882        O  0.68190334  0.77852544  0.31129808    -0.54580
C883        C  0.66937939  0.81387940  0.32861304     0.78050
O884        O  0.66938569  0.64954556  0.50077086    -0.60280
O885        O  0.63104485  0.60538922  0.47519720    -0.53310
C886        C  0.64900726  0.62843032  0.50713941     0.70070
O887        O  0.72534542  0.70705535  0.42762863    -0.74840
O888        O  0.72294236  0.71546007  0.35272255    -0.55400
C889        C  0.73472656  0.71936512  0.39507196     0.76070
O890        O  0.59079214  0.72135018  0.39721681    -0.59980
O891        O  0.58706675  0.63406156  0.40790973    -0.53100
C892        C  0.58021010  0.68200400  0.41002449     0.72660
Zr893      Zr  0.62394816  0.73362451  0.35651528     2.54710
O894        O  0.61576188  0.81385030  0.39818285    -0.80550
O895        O  0.58967582  0.76617418  0.29407365    -0.93960
Zr896      Zr  0.68671757  0.66637147  0.43672118     2.64680
O897        O  0.69731774  0.74744722  0.48392450    -0.98920
O898        O  0.71978963  0.61702223  0.48957537    -0.80980
O899        O  0.66982172  0.72326891  0.37761958    -0.84340
O900        O  0.64105017  0.67958838  0.41744446    -2.19050
O901        O  0.58126519  0.56259672  0.27281102    -0.67730
O902        O  0.58622526  0.54600021  0.34715096    -0.52290
C903        C  0.57502572  0.53896981  0.30429984     0.71040
O904        O  0.70450271  0.54942196  0.29116254    -0.60630
O905        O  0.70995148  0.63489598  0.27659643    -0.52610
C906        C  0.71326408  0.58512035  0.27070712     0.72850
O907        O  0.67110287  0.48903973  0.40698879    -0.72030
O908        O  0.63288697  0.51097899  0.42385805    -0.50710
C909        C  0.65372707  0.48371026  0.42907613     0.74230
O910        O  0.63329544  0.64446326  0.20469589    -0.67360
O911        O  0.66933858  0.69559066  0.23236453    -0.54560
C912        C  0.65162185  0.67390231  0.19990481     0.72610
Zr913      Zr  0.61734853  0.61434984  0.26687150     2.77540
O914        O  0.61322517  0.54287766  0.20873739    -0.98110
O915        O  0.57920040  0.65941225  0.22203055    -0.78930
Zr916      Zr  0.67891887  0.54310176  0.34695668     2.70070
O917        O  0.66623354  0.45943807  0.30462725    -0.80180
O918        O  0.72166658  0.50561250  0.37827942    -0.99260
Zr919      Zr  0.68097705  0.68412894  0.31278492     2.21500
Zr920      Zr  0.62369272  0.59461445  0.39200062     2.11130
O921        O  0.63336953  0.55429022  0.32578514    -2.47950
O922        O  0.66264395  0.60041511  0.28724655    -0.79970
O923        O  0.60529735  0.65044583  0.33170069    -0.72160
O924        O  0.69835331  0.62609683  0.37230595    -2.33120
O925        O  0.63516943  0.69896158  0.29063713    -2.29330
O926        O  0.66925969  0.58215522  0.41276007    -0.73920
H927        H  0.63553153  0.69463747  0.44310103     0.78070
H928        H  0.71693413  0.62145312  0.37791821     0.79160
H929        H  0.62559958  0.51991883  0.31775877     0.81390
H930        H  0.63025052  0.72340475  0.26672616     0.78990
H931        H  0.72310740  0.58544188  0.47135436     0.42030
H932        H  0.72596270  0.51668243  0.41102700     0.41000
H933        H  0.65756228  0.46928183  0.27328221     0.40680
H934        H  0.61060411  0.51081394  0.22384268     0.38610
H935        H  0.58615194  0.69057468  0.21130145     0.41740
H936        H  0.59642217  0.79990062  0.28733587     0.36530
H937        H  0.62872682  0.81277425  0.42812406     0.42640
H938        H  0.68029338  0.76451960  0.48254148     0.39060
H939        H  0.59624935  0.54920584  0.18674315     0.43980
H940        H  0.57541246  0.77658376  0.30802229     0.42700
H941        H  0.70368504  0.73593119  0.51539482     0.42840
H942        H  0.71832574  0.46735090  0.37708996     0.43190
O943        O  0.58999030  0.69602621  0.90049512    -0.75680
O944        O  0.61897256  0.75600519  0.94349432    -0.54580
C945        C  0.59670486  0.73229487  0.93215251     0.78050
O946        O  0.65263868  0.50710969  0.89175481    -0.60280
O947        O  0.67311765  0.49782224  0.83675542    -0.53310
C948        C  0.66800749  0.48215864  0.87304965     0.70070
O949        O  0.65371992  0.63562713  0.99479308    -0.74840
O950        O  0.66465759  0.72208251  0.00025387    -0.55400
C951        C  0.65918235  0.68019271  0.01707984     0.76070
O952        O  0.58947876  0.57464581  0.79300746    -0.59980
O953        O  0.61864867  0.56372416  0.75246666    -0.53100
C954        C  0.59961647  0.54743221  0.76509293     0.72660
Zr955      Zr  0.60498187  0.65640688  0.83846564     2.54710
O956        O  0.56208499  0.62755859  0.84057052    -0.80550
O957        O  0.57865019  0.71310620  0.78226435    -0.93960
Zr958      Zr  0.66409902  0.59210160  0.92877472     2.64680
O959        O  0.65117320  0.53232458  0.97845184    -0.98920
O960        O  0.70563501  0.56985546  0.97921910    -0.80980
O961        O  0.63365138  0.66083201  0.91333239    -0.84340
O962        O  0.63434527  0.58505010  0.85478771    -2.19050
O963        O  0.64859783  0.68671134  0.71732491    -0.67730
O964        O  0.65428731  0.59764070  0.72072957    -0.52290
C965        C  0.64960386  0.64003080  0.69854191     0.71040
O966        O  0.71341524  0.76053296  0.89008007    -0.60630
O967        O  0.70383354  0.77676071  0.95537254    -0.52610
C968        C  0.71998342  0.77974332  0.93071050     0.72850
O969        O  0.73063640  0.61284505  0.82386062    -0.72030
O970        O  0.69878943  0.56206773  0.77662379    -0.50710
C971        C  0.72214482  0.57944525  0.79028580     0.74230
O972        O  0.65976491  0.82231938  0.82951064    -0.67360
O973        O  0.65849415  0.82562140  0.90379180    -0.54560
C974        C  0.66032018  0.84694161  0.86807680     0.72610
Zr975      Zr  0.65381050  0.73344238  0.79221798     2.77540
O976        O  0.68330340  0.77852861  0.75839796    -0.98110
O977        O  0.61721698  0.77864479  0.74369000    -0.78930
Zr978      Zr  0.71358769  0.66665200  0.87796501     2.70070
O979        O  0.75542528  0.69652793  0.87111817    -0.80180
O980        O  0.74670496  0.64206542  0.94564684    -0.99260
Zr981      Zr  0.65984247  0.73699891  0.92146065     2.21500
Zr982      Zr  0.66049264  0.58421330  0.80151263     2.11130
O983        O  0.68427705  0.66285970  0.80477893    -2.47950
O984        O  0.68295178  0.73596819  0.86459207    -0.79970
O985        O  0.62995812  0.65526856  0.78559891    -0.72160
O986        O  0.69080027  0.66668128  0.93580416    -2.33120
O987        O  0.62918307  0.73545459  0.84705322    -2.29330
O988        O  0.69008702  0.58842358  0.87558961    -0.73920
H989        H  0.62311152  0.55518289  0.85119928     0.78070
H990        H  0.70246136  0.67135315  0.96593566     0.79160
H991        H  0.69310461  0.66333967  0.78109373     0.81390
H992        H  0.61778772  0.76584189  0.84420285     0.78990
H993        H  0.71840956  0.57577885  0.96187005     0.42030
H994        H  0.75662620  0.61323924  0.93458765     0.41000
H995        H  0.75099136  0.71983993  0.84525551     0.40680
H996        H  0.69363678  0.75014800  0.74778562     0.38610
H997        H  0.60726877  0.75049526  0.72290273     0.41740
H998        H  0.56675890  0.73156975  0.79812010     0.36530
H999        H  0.56555989  0.60027458  0.86332536     0.42640
H1000       H  0.63393888  0.51851961  0.96118739     0.39060
H1001       H  0.67194033  0.79209512  0.73010411     0.43980
H1002       H  0.56732046  0.68857225  0.75946600     0.42700
H1003       H  0.66316460  0.50176790  0.98058404     0.42840
H1004       H  0.75898328  0.67185699  0.95376948     0.43190
O1005       O  0.49711247  0.82459327  0.04773847    -0.75680
O1006       O  0.50094872  0.86834928  0.98983048    -0.54580
C1007       C  0.50943840  0.85741774  0.03191136     0.78050
O1008       O  0.91372237  0.66502200  0.02912650    -0.60280
O1009       O  0.88155209  0.71619257  0.04740895    -0.53310
C1010       C  0.89257205  0.67034567  0.04112504     0.70070
O1011       O  0.98776840  0.72071592  0.99554130    -0.74840
O1012       O  0.48072348  0.75891664  0.92959503    -0.55400
C1013       C  0.49623548  0.73799107  0.96308562     0.76070
O1014       O  0.94839430  0.83468307  0.14172724    -0.59980
O1015       O  0.90506393  0.81768633  0.12599214    -0.53100
C1016       C  0.92781179  0.82520989  0.15395216     0.72660
Zr1017     Zr  0.95979925  0.85472582  0.07288993     2.54710
O1018       O  0.99760068  0.85960397  0.13858848    -0.80550
O1019       O  0.94959975  0.94711497  0.08647734    -0.93960
Zr1020     Zr  0.94205564  0.72015465  0.00340478     2.64680
O1021       O  0.96837947  0.66666154  0.06255448    -0.98920
O1022       O  0.93737001  0.64603935  0.94762877    -0.80980
O1023       O  0.96717078  0.79530695  0.01517827    -0.84340
O1024       O  0.93384259  0.77863965  0.06300027    -2.19050
O1025       O  0.87412970  0.95667015  0.99798611    -0.67730
O1026       O  0.87488832  0.90925631  0.05936856    -0.52290
C1027       C  0.86998878  0.95252265  0.03658971     0.71040
O1028       O  0.89775007  0.80479921  0.84582716    -0.60630
O1029       O  0.94041656  0.82905204  0.86211955    -0.52610
C1030       C  0.91824507  0.81747772  0.83412619     0.72850
O1031       O  0.84146981  0.79047814  0.93432473    -0.72030
O1032       O  0.84508879  0.80356758  0.01044750    -0.50710
C1033       C  0.83159539  0.79548658  0.96920496     0.74230
O1034       O  0.93685786  0.97272776  0.92973593    -0.67360
O1035       O  0.96634219  0.91454726  0.91239777    -0.54560
C1036       C  0.95570548  0.96019756  0.91159864     0.72610
Zr1037     Zr  0.91097755  0.92915794  0.97438513     2.77540
O1038       O  0.88068461  0.96587157  0.90874100    -0.98110
O1039       O  0.92294208  0.01558985  0.01219916    -0.78930
Zr1040     Zr  0.88486817  0.79207168  0.91548154     2.70070
O1041       O  0.84878303  0.81789295  0.85290709    -0.80180
O1042       O  0.87641596  0.70049311  0.88865594    -0.99260
Zr1043     Zr  0.95753100  0.83562486  0.94432501     2.21500
Zr1044     Zr  0.89073570  0.81483104  0.04205605     2.11130
O1045       O  0.88166011  0.85781408  0.97101010    -2.47950
O1046       O  0.91361471  0.86422202  0.91919481    -0.79970
O1047       O  0.91790084  0.88906762  0.04652672    -0.72160
O1048       O  0.92916842  0.76093975  0.93295651    -2.33120
O1049       O  0.95351785  0.89857808  0.00305690    -2.29330
O1050       O  0.89789598  0.75174335  0.98523565    -0.73920
H1051       H  0.93684133  0.75859097  0.08980422     0.78070
H1052       H  0.93162820  0.73736360  0.90843140     0.79160
H1053       H  0.86415831  0.87162843  0.96302743     0.81390
H1054       H  0.96529934  0.92751870  0.00581489     0.78990
H1055       H  0.95476154  0.64172251  0.94198922     0.42030
H1056       H  0.86635098  0.68687571  0.90850688     0.41000
H1057       H  0.84752761  0.85660462  0.85768464     0.40680
H1058       H  0.86419215  0.94682658  0.90508806     0.38610
H1059       H  0.91700328  0.01620177  0.04026362     0.41740
H1060       H  0.96218618  0.96987893  0.07831678     0.36530
H1061       H  0.49170158  0.87647944  0.16413511     0.42640
H1062       H  0.96062335  0.67182586  0.08859507     0.39060
H1063       H  0.87716131  0.00216775  0.91927843     0.43980
H1064       H  0.95208696  0.95265515  0.11967453     0.42700
H1065       H  0.96427010  0.62977092  0.05106474     0.42840
H1066       H  0.86367195  0.70234756  0.85855849     0.43190
O1067       O  0.49463865  0.82449703  0.57553987    -0.75680
O1068       O  0.50910437  0.86293458  0.52423400    -0.54580
C1069       C  0.51218452  0.85080557  0.56596267     0.78050
O1070       O  0.91009351  0.67718051  0.52912968    -0.60280
O1071       O  0.87589896  0.72922062  0.53724412    -0.53310
C1072       C  0.88748770  0.68300471  0.53511939     0.70070
O1073       O  0.98467629  0.70617848  0.50538729    -0.74840
O1074       O  0.49772741  0.77030540  0.46681002    -0.55400
C1075       C  0.50025480  0.72606498  0.48537278     0.76070
O1076       O  0.93254331  0.85873905  0.63851850    -0.59980
O1077       O  0.89056515  0.83240912  0.61089443    -0.53100
C1078       C  0.91067829  0.84437037  0.64393315     0.72660
Zr1079     Zr  0.95566694  0.87085232  0.58140012     2.54710
O1080       O  0.98554229  0.87250792  0.65728923    -0.80550
O1081       O  0.96591269  0.96257537  0.60793392    -0.93960
Zr1082     Zr  0.94300436  0.73130955  0.51817692     2.64680
O1083       O  0.96549363  0.70355088  0.59363965    -0.98920
O1084       O  0.94242367  0.64281533  0.48291501    -0.80980
O1085       O  0.96827162  0.80602249  0.53278127    -0.84340
O1086       O  0.92903120  0.79476070  0.56765664    -2.19050
O1087       O  0.87171166  0.95489474  0.47268792    -0.67730
O1088       O  0.86837381  0.92034057  0.53680369    -0.52290
C1089       C  0.86530641  0.95957852  0.50971924     0.71040
O1090       O  0.91947622  0.79932080  0.35197451    -0.60630
O1091       O  0.96191461  0.82423768  0.37993557    -0.52610
C1092       C  0.94184575  0.81013905  0.34698070     0.72850
O1093       O  0.85353424  0.77885265  0.41298043    -0.72030
O1094       O  0.84550571  0.80801557  0.48061106    -0.50710
C1095       C  0.83883360  0.78755960  0.43997361     0.74230
O1096       O  0.94177193  0.97086648  0.42337046    -0.67360
O1097       O  0.97833312  0.92039925  0.43118865    -0.54560
C1098       C  0.96425139  0.96053572  0.41647010     0.72610
Zr1099     Zr  0.91508873  0.93627599  0.46993838     2.77540
O1100       O  0.89232363  0.98949451  0.40741446    -0.98110
O1101       O  0.92607030  0.01831457  0.51573939    -0.78930
Zr1102     Zr  0.89828369  0.79440937  0.41162400     2.70070
O1103       O  0.86784548  0.82422881  0.34303372    -0.80180
O1104       O  0.89425055  0.70271953  0.38313333    -0.99260
Zr1105     Zr  0.96844455  0.84168794  0.46316923     2.21500
Zr1106     Zr  0.88698586  0.82672343  0.52932487     2.11130
O1107       O  0.88631062  0.86245504  0.45740741    -2.47950
O1108       O  0.92608010  0.86845594  0.42317352    -0.79970
O1109       O  0.91465194  0.90230524  0.54175458    -0.72160
O1110       O  0.94109955  0.76569649  0.44702924    -2.33120
O1111       O  0.95679081  0.90971163  0.51185172    -2.29330
O1112       O  0.90055611  0.76009232  0.48201340    -0.73920
H1113       H  0.92907256  0.77659809  0.59455203     0.78070
H1114       H  0.94696054  0.73986664  0.42737796     0.79160
H1115       H  0.86887972  0.87189413  0.44101912     0.81390
H1116       H  0.96885949  0.93847285  0.51666031     0.78990
H1117       H  0.93529149  0.64735470  0.44993568     0.42030
H1118       H  0.88720954  0.68468502  0.40514920     0.41000
H1119       H  0.86510117  0.86207380  0.35008452     0.40680
H1120       H  0.87662907  0.96913714  0.39126076     0.38610
H1121       H  0.92022751  0.01337717  0.54337046     0.41740
H1122       H  0.96642104  0.98236599  0.58131218     0.36530
H1123       H  0.48772839  0.83508945  0.66493040     0.42640
H1124       H  0.96910803  0.66560305  0.58886707     0.39060
H1125       H  0.88569079  0.02076747  0.42183197     0.43980
H1126       H  0.98406291  0.96274533  0.62699903     0.42700
H1127       H  0.98275591  0.72050569  0.60066309     0.42840
H1128       H  0.87969806  0.70276342  0.35514097     0.43190
O1129       O  0.78174536  0.49841332  0.12450840    -0.75680
O1130       O  0.75991093  0.44083179  0.15480617    -0.54580
C1131       C  0.76574527  0.48730047  0.14808872     0.78050
O1132       O  0.79093537  0.30804087  0.94131391    -0.60280
O1133       O  0.83504858  0.30604266  0.96644507    -0.53310
C1134       C  0.81363119  0.30339788  0.93459475     0.70070
O1135       O  0.72803735  0.33324248  0.01257151    -0.74840
O1136       O  0.73198421  0.39508196  0.06879459    -0.55400
C1137       C  0.72085926  0.37644710  0.02794083     0.76070
O1138       O  0.83156163  0.46613273  0.02967638    -0.59980
O1139       O  0.86439023  0.40677878  0.04153676    -0.53100
C1140       C  0.85519530  0.45494189  0.03369578     0.72660
Zr1141     Zr  0.81130632  0.44609414  0.08618240     2.54710
O1142       O  0.79921046  0.53313659  0.05720717    -0.80550
O1143       O  0.84782868  0.49156706  0.13883313    -0.93960
Zr1144     Zr  0.77102594  0.32774507  0.00313305     2.64680
O1145       O  0.75288442  0.38733961  0.94303692    -0.98920
O1146       O  0.74672348  0.25518473  0.95651423    -0.80980
O1147       O  0.77281946  0.39814753  0.05990841    -0.84340
O1148       O  0.80882428  0.37902873  0.02449873    -2.19050
O1149       O  0.89092998  0.33088881  0.15912255    -0.67730
O1150       O  0.88849955  0.31369163  0.08426124    -0.52290
C1151       C  0.90163923  0.32100129  0.12560353     0.71040
O1152       O  0.75542633  0.22065679  0.12525594    -0.60630
O1153       O  0.73915780  0.30202485  0.13860630    -0.52610
C1154       C  0.73788622  0.25212132  0.13580973     0.72850
O1155       O  0.82716651  0.17174032  0.07744667    -0.72030
O1156       O  0.85383497  0.21705184  0.04486855    -0.50710
C1157       C  0.84551195  0.17355562  0.05799241     0.74230
O1158       O  0.82506467  0.34063375  0.23398386    -0.67360
O1159       O  0.78096101  0.35335552  0.20895246    -0.54560
C1160       C  0.80215246  0.34541943  0.24024490     0.72610
Zr1161     Zr  0.84584745  0.34046901  0.17211187     2.77540
O1162       O  0.86925104  0.27589102  0.22406022    -0.98110
O1163       O  0.86807157  0.41279400  0.22220154    -0.78930
Zr1164     Zr  0.79710173  0.23027509  0.09994161     2.70070
O1165       O  0.81170408  0.17661916  0.16550210    -0.80180
O1166       O  0.77284383  0.15932021  0.05065216    -0.99260
Zr1167     Zr  0.77019371  0.35863836  0.12629376     2.21500
Zr1168     Zr  0.84324705  0.31686109  0.04868415     2.11130
O1169       O  0.83893159  0.27357457  0.11430223    -2.47950
O1170       O  0.80424139  0.29819561  0.15610339    -0.79970
O1171       O  0.84685857  0.38521920  0.10750697    -0.72160
O1172       O  0.76490488  0.28994599  0.06850940    -2.33120
O1173       O  0.81091800  0.40288555  0.15133609    -2.29330
O1174       O  0.80377797  0.26672038  0.03263293    -0.73920
H1175       H  0.80990872  0.39286871  0.99630993     0.78070
H1176       H  0.74845179  0.27203681  0.06096432     0.79160
H1177       H  0.85292386  0.24865308  0.12402448     0.81390
H1178       H  0.81137351  0.42763498  0.17677010     0.78990
H1179       H  0.73291836  0.27236391  0.93330090     0.42030
H1180       H  0.77810571  0.16019115  0.02193752     0.41000
H1181       H  0.82958103  0.18898421  0.18042709     0.40680
H1182       H  0.87720547  0.25113255  0.20528965     0.38610
H1183       H  0.88123697  0.42460160  0.20741014     0.41740
H1184       H  0.84245232  0.49748779  0.16737496     0.36530
H1185       H  0.79445722  0.52855302  0.02358734     0.42640
H1186       H  0.76799688  0.40546400  0.93781591     0.39060
H1187       H  0.88412417  0.29552859  0.24428877     0.43980
H1188       H  0.84743356  0.52713753  0.12711523     0.42700
H1189       H  0.74620967  0.36435137  0.91521018     0.42840
H1190       H  0.78064360  0.12643728  0.06432054     0.43190
O1191       O  0.79565124  0.48668441  0.66187925    -0.75680
O1192       O  0.76866818  0.42778136  0.67949215    -0.54580
C1193       C  0.77916764  0.47305581  0.68299931     0.78050
O1194       O  0.78337352  0.35563285  0.44200095    -0.60280
O1195       O  0.82601780  0.33084806  0.45714598    -0.53310
C1196       C  0.80423397  0.34399600  0.42987332     0.70070
O1197       O  0.72839853  0.38011355  0.52670009    -0.74840
O1198       O  0.72795122  0.37387485  0.60077030    -0.55400
C1199       C  0.71693019  0.38212948  0.55852865     0.76070
O1200       O  0.84391466  0.48169431  0.57103501    -0.59980
O1201       O  0.85916520  0.41722916  0.52884927    -0.53100
C1202       C  0.85710366  0.46688292  0.54359205     0.72660
Zr1203     Zr  0.81767485  0.44226895  0.60956447     2.54710
O1204       O  0.79780446  0.52334827  0.57745745    -0.80550
O1205       O  0.85313694  0.48417021  0.66757611    -0.93960
Zr1206     Zr  0.76894200  0.36098544  0.51145146     2.64680
O1207       O  0.75397652  0.44456386  0.47870581    -0.98920
O1208       O  0.73678632  0.31122771  0.45298395    -0.80980
O1209       O  0.77560212  0.40811561  0.58341991    -0.84340
O1210       O  0.81016479  0.39812680  0.53585718    -2.19050
O1211       O  0.89005200  0.30167572  0.64396500    -0.67730
O1212       O  0.88541597  0.31049169  0.56810011    -0.52290
C1213       C  0.89920305  0.30220232  0.60835394     0.71040
O1214       O  0.74902740  0.21412660  0.59701909    -0.60630
O1215       O  0.74168312  0.28369081  0.64262107    -0.52610
C1216       C  0.73529985  0.23909733  0.62135240     0.72850
O1217       O  0.81817803  0.17667199  0.54119967    -0.72030
O1218       O  0.84810726  0.22750278  0.52102293    -0.50710
C1219       C  0.83809075  0.18189418  0.52613584     0.74230
O1220       O  0.83267549  0.30910019  0.73322728    -0.67360
O1221       O  0.78904126  0.32700248  0.71850362    -0.54560
C1222       C  0.81147213  0.31594513  0.74539873     0.72610
Zr1223     Zr  0.84719314  0.31219464  0.66457870     2.77540
O1224       O  0.86509625  0.22965955  0.69666438    -0.98110
O1225       O  0.87794731  0.36617919  0.72185545    -0.78930
Zr1226     Zr  0.79060950  0.23120535  0.57451212     2.70070
O1227       O  0.80143938  0.15635945  0.62243307    -0.80180
O1228       O  0.76285054  0.18180267  0.50949436    -0.99260
Zr1229     Zr  0.77314083  0.34737826  0.63827380     2.21500
Zr1230     Zr  0.83986642  0.32608900  0.53904891     2.11130
O1231       O  0.83429868  0.26638191  0.59415591    -2.47950
O1232       O  0.80366087  0.27642910  0.64627876    -0.79970
O1233       O  0.84939579  0.37411130  0.61127712    -0.72160
O1234       O  0.76256809  0.30314769  0.56511410    -2.33120
O1235       O  0.81628300  0.38155887  0.66329111    -2.29330
O1236       O  0.79715429  0.28778379  0.51786244    -0.73920
H1237       H  0.81128161  0.42207200  0.51308794     0.78070
H1238       H  0.74474558  0.29165692  0.55518974     0.79160
H1239       H  0.84696786  0.23829234  0.59840803     0.81390
H1240       H  0.81953457  0.39913266  0.69314287     0.78990
H1241       H  0.73334255  0.27975285  0.46804357     0.42030
H1242       H  0.76966280  0.18951167  0.48338913     0.41000
H1243       H  0.79694096  0.16801055  0.65094399     0.40680
H1244       H  0.87302842  0.21209973  0.67374734     0.38610
H1245       H  0.88455628  0.39161345  0.70431157     0.41740
H1246       H  0.84998550  0.47577866  0.69692055     0.36530
H1247       H  0.77984975  0.51334922  0.56055593     0.42640
H1248       H  0.76978616  0.46248615  0.47622736     0.39060
H1249       H  0.88008842  0.24041988  0.72236405     0.43980
H1250       H  0.84943355  0.52238141  0.66534533     0.42700
H1251       H  0.74446782  0.43427030  0.44700755     0.42840
H1252       H  0.76743676  0.14438983  0.51500347     0.43190
O1253       O  0.57815241  0.00486495  0.17971659    -0.75680
O1254       O  0.56004685  0.97913729  0.23197126    -0.54580
C1255       C  0.56417236  0.97229230  0.19234104     0.78050
O1256       O  0.64574748  0.18563828  0.20035956    -0.60280
O1257       O  0.61834569  0.25248618  0.17056643    -0.53310
C1258       C  0.64076966  0.22778487  0.17904222     0.70070
O1259       O  0.64387251  0.04784626  0.27397427    -0.74840
O1260       O  0.61400005  0.01019780  0.30385204    -0.55400
C1261       C  0.63650072  0.01262235  0.29596503     0.76070
O1262       O  0.56880340  0.12988979  0.08889372    -0.59980
O1263       O  0.57036836  0.21922170  0.10206582    -0.53100
C1264       C  0.57084015  0.17659747  0.07681207     0.72660
Zr1265     Zr  0.55973258  0.08755631  0.15122449     2.54710
O1266       O  0.55926307  0.02290104  0.08887288    -0.80550
O1267       O  0.51467693  0.08556434  0.10515885    -0.93960
Zr1268     Zr  0.62622321  0.12690694  0.23832250     2.64680
O1269       O  0.64758798  0.07301750  0.19001764    -0.98920
O1270       O  0.66675193  0.15512421  0.29225626    -0.80980
O1271       O  0.59278391  0.06465729  0.21656760    -0.84340
O1272       O  0.59413267  0.14855294  0.17200699    -2.19050
O1273       O  0.50415088  0.23800536  0.19304634    -0.67730
O1274       O  0.53183758  0.27874709  0.15994876    -0.52290
C1275       C  0.50956170  0.27385951  0.16957558     0.71040
O1276       O  0.57931919  0.16281118  0.37274492    -0.60630
O1277       O  0.57755876  0.07366030  0.36098874    -0.52610
C1278       C  0.57686750  0.11648848  0.38560295     0.72850
O1279       O  0.58118663  0.30033466  0.29925859    -0.72030
O1280       O  0.57858071  0.31746680  0.22575366    -0.50710
C1281       C  0.57749109  0.33167321  0.26657592     0.74230
O1282       O  0.50606193  0.10415597  0.27779836    -0.67360
O1283       O  0.53558486  0.03816874  0.30010982    -0.54560
C1284       C  0.51389697  0.06198793  0.29883394     0.72610
Zr1285     Zr  0.52297053  0.16226512  0.23136730     2.77540
O1286       O  0.50314082  0.21438918  0.28311291    -0.98110
O1287       O  0.98152215  0.13143258  0.18217237    -0.78930
Zr1288     Zr  0.59048200  0.20766630  0.31276382     2.70070
O1289       O  0.59386927  0.25702489  0.38485065    -0.80180
O1290       O  0.63714284  0.21795495  0.34474556    -0.99260
Zr1291     Zr  0.57431851  0.06109056  0.27930026     2.21500
Zr1292     Zr  0.57497454  0.23154605  0.18488328     2.11130
O1293       O  0.55606874  0.22587529  0.24792574    -2.47950
O1294       O  0.55681377  0.14442569  0.29551486    -0.79970
O1295       O  0.54054375  0.16816729  0.16725439    -0.72160
O1296       O  0.60870372  0.12422002  0.30125626    -2.33120
O1297       O  0.54084118  0.08197517  0.21331485    -2.29330
O1298       O  0.60916911  0.21180659  0.25127883    -0.73920
H1299       H  0.60375470  0.14985871  0.14960057     0.78070
H1300       H  0.62162784  0.11467349  0.32839296     0.79160
H1301       H  0.54637971  0.25720449  0.25225036     0.81390
H1302       H  0.52725898  0.05649395  0.20841846     0.78990
H1303       H  0.66805720  0.13474156  0.31943446     0.42030
H1304       H  0.63994698  0.25645964  0.34660762     0.41000
H1305       H  0.57580242  0.26043184  0.38758876     0.40680
H1306       H  0.51227067  0.24859878  0.28871027     0.38610
H1307       H  0.96827548  0.14832161  0.19584598     0.41740
H1308       H  0.50367346  0.08627889  0.12655695     0.36530
H1309       H  0.57774173  0.01844560  0.08880083     0.42640
H1310       H  0.63930438  0.08323881  0.15865526     0.39060
H1311       H  0.98534719  0.22262255  0.26479298     0.43980
H1312       H  0.51182721  0.05085352  0.08834885     0.42700
H1313       H  0.66550581  0.08690564  0.19705088     0.42840
H1314       H  0.64036684  0.20850197  0.37678350     0.43190
O1315       O  0.58438924  0.99733185  0.71418500    -0.75680
O1316       O  0.56388209  0.98054980  0.76478380    -0.54580
C1317       C  0.56939131  0.96729032  0.72716372     0.78050
O1318       O  0.64354749  0.20850921  0.71959524    -0.60280
O1319       O  0.61601672  0.22213974  0.65180312    -0.53310
C1320       C  0.63968289  0.21569368  0.67745573     0.70070
O1321       O  0.64720815  0.07653985  0.80692091    -0.74840
O1322       O  0.61572022  0.03872780  0.83261987    -0.55400
C1323       C  0.63952640  0.04539776  0.83202598     0.76070
O1324       O  0.57158709  0.09282970  0.59280908    -0.59980
O1325       O  0.56713200  0.18193140  0.59059928    -0.53100
C1326       C  0.56906617  0.13563465  0.57176782     0.72660
Zr1327     Zr  0.56613058  0.06772980  0.66463262     2.54710
O1328       O  0.57696870  0.99942325  0.61286925    -0.80550
O1329       O  0.51924450  0.07679569  0.62696900    -0.93960
Zr1330     Zr  0.62655314  0.13683588  0.75049616     2.64680
O1331       O  0.65029092  0.08125100  0.70707981    -0.98920
O1332       O  0.66401498  0.17065498  0.80935586    -0.80980
O1333       O  0.59682774  0.06681093  0.73705005    -0.84340
O1334       O  0.59711996  0.13454857  0.67680549    -2.19050
O1335       O  0.49944829  0.21060400  0.66587676    -0.67730
O1336       O  0.52782487  0.25122386  0.63401694    -0.52290
C1337       C  0.50471679  0.24313851  0.63929768     0.71040
O1338       O  0.57328919  0.19662609  0.86999130    -0.60630
O1339       O  0.57560573  0.10688128  0.87209874    -0.52610
C1340       C  0.57353192  0.15360873  0.89000370     0.72850
O1341       O  0.57578931  0.31010223  0.76833610    -0.72030
O1342       O  0.57539016  0.30526915  0.69297625    -0.50710
C1343       C  0.57513320  0.33050472  0.73057409     0.74230
O1344       O  0.00296022  0.10091835  0.77613542    -0.67360
O1345       O  0.53579316  0.05180771  0.81853934    -0.54560
C1346       C  0.01210934  0.06828678  0.80759612     0.72610
Zr1347     Zr  0.51935391  0.15014595  0.72160889     2.77540
O1348       O  0.49451555  0.21175866  0.75817001    -0.98110
O1349       O  0.98061661  0.10514992  0.67536834    -0.78930
Zr1350     Zr  0.57986022  0.22423919  0.79966677     2.70070
O1351       O  0.56227431  0.29295719  0.84206427    -0.80180
O1352       O  0.62343338  0.24879050  0.84383134    -0.99260
Zr1353     Zr  0.57367928  0.07316518  0.79431039     2.21500
Zr1354     Zr  0.57211588  0.21353723  0.67003497     2.11130
O1355       O  0.54888492  0.22087152  0.72837314    -2.47950
O1356       O  0.55026728  0.15397441  0.79187035    -0.79970
O1357       O  0.54144085  0.14489342  0.66237372    -0.72160
O1358       O  0.60359888  0.14471384  0.80689036    -2.33120
O1359       O  0.54237225  0.07013558  0.72121784    -2.29330
O1360       O  0.60295971  0.21723997  0.74349258    -0.73920
H1361       H  0.60691376  0.12979047  0.65444877     0.78070
H1362       H  0.61531858  0.14435688  0.83703072     0.79160
H1363       H  0.53889475  0.25315282  0.72578739     0.81390
H1364       H  0.53035178  0.04128252  0.71733953     0.78990
H1365       H  0.65827891  0.17516046  0.83762593     0.42030
H1366       H  0.62797555  0.27873343  0.82816620     0.41000
H1367       H  0.54317814  0.28970854  0.82997950     0.40680
H1368       H  0.50128756  0.24708337  0.75566095     0.38610
H1369       H  0.96592339  0.12492955  0.68269990     0.41740
H1370       H  0.00859326  0.04757898  0.63206873     0.36530
H1371       H  0.59548944  0.99098164  0.62670970     0.42640
H1372       H  0.65278302  0.10309661  0.68281431     0.39060
H1373       H  0.97672718  0.21135322  0.73748015     0.43980
H1374       H  0.51755423  0.07541294  0.59384578     0.42700
H1375       H  0.66790906  0.07731772  0.72762413     0.42840
H1376       H  0.62100990  0.26445201  0.87288287     0.43190
C1377       C  0.57222114  0.11545178  0.43150845    -0.06510
C1378       C  0.55858407  0.15844782  0.44569909    -0.17640
C1379       C  0.55641228  0.16536233  0.49032931     0.10690
C1380       C  0.56897607  0.12956902  0.52289574    -0.06430
C1381       C  0.58155806  0.08516796  0.50818234    -0.17670
C1382       C  0.58283360  0.07724277  0.46300668     0.10720
S1383       S  0.53661617  0.21962231  0.50268377    -0.32630
S1384       S  0.59946667  0.01926488  0.44864021    -0.32640
H1385       H  0.57794220  0.00117074  0.41378429     0.28730
H1386       H  0.52439867  0.19040554  0.52885600     0.28720
H1387       H  0.54942177  0.18729005  0.42160479     0.19320
H1388       H  0.59082564  0.05635477  0.53219755     0.19320
C1389       C  0.57202274  0.15973234  0.93753255    -0.06510
C1390       C  0.59056123  0.13379478  0.97051187    -0.17640
C1391       C  0.59211556  0.14292752  0.01664038     0.10690
C1392       C  0.57442594  0.17831822  0.03067440    -0.06430
C1393       C  0.55615049  0.20514096  0.99773762    -0.17670
C1394       C  0.55454150  0.19574254  0.95134143     0.10720
S1395       S  0.61709640  0.10749254  0.05595759    -0.32630
S1396       S  0.52857577  0.22799900  0.91131729    -0.32640
H1397       H  0.52459642  0.18673603  0.87744093     0.28730
H1398       H  0.62182385  0.14805728  0.09019949     0.28720
H1399       H  0.60441124  0.10717718  0.96035037     0.19320
H1400       H  0.54192302  0.23068588  0.00790812     0.19320
C1401       C  0.92731813  0.29066894  0.61203391    -0.06510
C1402       C  0.94666573  0.32641744  0.63560910    -0.17640
C1403       C  0.97316343  0.31752726  0.63683020     0.10690
C1404       C  0.98083687  0.27157315  0.61533289    -0.06430
C1405       C  0.96111998  0.23932800  0.58774296    -0.17670
C1406       C  0.93482427  0.24786376  0.58630394     0.10720
S1407       S  0.99752025  0.36409011  0.66669610    -0.32630
S1408       S  0.91199615  0.19985155  0.55366236    -0.32640
H1409       H  0.89585761  0.20248109  0.58336058     0.28730
H1410       H  0.48061234  0.39921651  0.68221536     0.28720
H1411       H  0.94100900  0.36122533  0.65290818     0.19320
H1412       H  0.96651536  0.20328553  0.57162298     0.19320
C1413       C  0.66412330  0.21513660  0.65979169    -0.06510
C1414       C  0.66292279  0.22743116  0.61479459    -0.17640
C1415       C  0.68557891  0.22796126  0.59853530     0.10690
C1416       C  0.71055302  0.21735079  0.62759497    -0.06430
C1417       C  0.71157258  0.20183854  0.67097277    -0.17670
C1418       C  0.68927092  0.19935677  0.68707844     0.10720
S1419       S  0.68132634  0.24255947  0.54022635    -0.32630
S1420       S  0.69517965  0.17720987  0.74397909    -0.32640
H1421       H  0.71773715  0.14732047  0.74412980     0.28730
H1422       H  0.70498008  0.22052064  0.53592829     0.28720
H1423       H  0.64428188  0.23712599  0.59209162     0.19320
H1424       H  0.73053666  0.19465588  0.69383559     0.19320
C1425       C  0.81472879  0.29847643  0.88646452    -0.06510
C1426       C  0.83524244  0.32285459  0.87490469    -0.17640
C1427       C  0.83473543  0.32932187  0.82950080     0.10690
C1428       C  0.81320668  0.31055573  0.79414073    -0.06430
C1429       C  0.79319956  0.28431278  0.80562520    -0.17670
C1430       C  0.79398376  0.27699655  0.85102292     0.10720
S1431       S  0.86159034  0.36477605  0.81995098    -0.32630
S1432       S  0.76832731  0.23820288  0.86101144    -0.32640
H1433       H  0.78413420  0.21554118  0.89991431     0.28730
H1434       H  0.84684038  0.39134527  0.78258088     0.28720
H1435       H  0.85117858  0.33980297  0.90149721     0.19320
H1436       H  0.77707279  0.26820062  0.77891629     0.19320
C1437       C  0.80049837  0.34139223  0.28727944    -0.06510
C1438       C  0.78744855  0.38110233  0.30624657    -0.17640
C1439       C  0.78876348  0.38373779  0.35267007     0.10690
C1440       C  0.80287936  0.34484628  0.38088907    -0.06430
C1441       C  0.81533489  0.30427045  0.36142623    -0.17670
C1442       C  0.81402574  0.30174110  0.31502740     0.10720
S1443       S  0.77355362  0.43997698  0.37372311    -0.32630
S1444       S  0.82926905  0.24593898  0.29302282    -0.32640
H1445       H  0.81136019  0.24304553  0.24982084     0.28730
H1446       H  0.79176729  0.44441806  0.41630831     0.28720
H1447       H  0.77732340  0.41195717  0.28523548     0.19320
H1448       H  0.82569020  0.27355084  0.38232378     0.19320
C1449       C  0.93095334  0.31803184  0.13368793    -0.06510
C1450       C  0.94734498  0.33863762  0.17487721    -0.17640
C1451       C  0.97466579  0.33408168  0.18442404     0.10690
C1452       C  0.98657281  0.30830651  0.15248383    -0.06430
C1453       C  0.97052942  0.29311148  0.10965325    -0.17670
C1454       C  0.94326213  0.29620604  0.10018219     0.10720
S1455       S  0.99348627  0.35711274  0.24019426    -0.32630
S1456       S  0.92601054  0.26552300  0.04606871    -0.32640
H1457       H  0.91202594  0.23168303  0.06559604     0.28730
H1458       H  0.51753132  0.35480124  0.22960418     0.28720
H1459       H  0.93887966  0.35697950  0.20058377     0.19320
H1460       H  0.97911123  0.27183431  0.08533030     0.19320
C1461       C  0.71368735  0.23387536  0.14515851    -0.06510
C1462       C  0.69025485  0.23883276  0.11059575    -0.17640
C1463       C  0.66582543  0.24445698  0.12043587     0.10690
C1464       C  0.66432116  0.24525561  0.16601973    -0.06430
C1465       C  0.68798026  0.24234002  0.20040666    -0.17670
C1466       C  0.71214692  0.23591329  0.19059875     0.10720
S1467       S  0.63745566  0.25135850  0.07353403    -0.32630
S1468       S  0.74075057  0.23297072  0.23797070    -0.32640
H1469       H  0.75649267  0.20584699  0.21365101     0.28730
H1470       H  0.62398216  0.28472378  0.09788792     0.28720
H1471       H  0.69115277  0.24154991  0.07574143     0.19320
H1472       H  0.68746154  0.24175777  0.23565103     0.19320
C1473       C  0.55272744  0.93182725  0.69084842    -0.06510
C1474       C  0.54083342  0.95711713  0.65155821    -0.17640
C1475       C  0.03156660  0.93124372  0.60944606     0.10690
C1476       C  0.53116587  0.87645078  0.60554380    -0.06430
C1477       C  0.54149965  0.84900487  0.64572817    -0.17670
C1478       C  0.55274766  0.87622940  0.68824114     0.10720
S1479       S  0.01984375  0.97094672  0.56183223    -0.32630
S1480       S  0.56543260  0.83845038  0.73736460    -0.32640
H1481       H  0.56645087  0.87986644  0.77024406     0.28730
H1482       H  0.03637170  0.94523641  0.53827177     0.28720
H1483       H  0.04106187  0.99857759  0.65304619     0.19320
H1484       H  0.53997766  0.80649886  0.64429565     0.19320
C1485       C  0.97492558  0.99596220  0.38903602    -0.06510
C1486       C  0.95983227  0.01052155  0.34611540    -0.17640
C1487       C  0.97143641  0.03399601  0.31561134     0.10690
C1488       C  0.99871610  0.04145696  0.32803257    -0.06430
C1489       C  0.51305934  0.03014957  0.37184857    -0.17670
C1490       C  0.50147110  0.00924721  0.40241400     0.10720
S1491       S  0.95073905  0.05149313  0.26142194    -0.32630
S1492       S  0.52155253  0.00300004  0.45892303    -0.32640
H1493       H  0.50134573  0.01903498  0.47850429     0.28730
H1494       H  0.96916198  0.04058005  0.23658921     0.28720
H1495       H  0.93928456  0.00131964  0.33546632     0.19320
H1496       H  0.53365480  0.03863273  0.38287954     0.19320
C1497       C  0.87637418  0.62967689  0.53948481    -0.06510
C1498       C  0.85898296  0.60410060  0.50148218    -0.17640
C1499       C  0.85519445  0.54844821  0.49781351     0.10690
C1500       C  0.86959864  0.51513690  0.53174716    -0.06430
C1501       C  0.88778532  0.54090878  0.56858712    -0.17670
C1502       C  0.89090451  0.59632625  0.57313845     0.10720
S1503       S  0.83090325  0.52210416  0.44918263    -0.32630
S1504       S  0.91426940  0.62264645  0.62346912    -0.32640
H1505       H  0.90295493  0.67311816  0.62360978     0.28730
H1506       H  0.84033488  0.47000387  0.45193091     0.28720
H1507       H  0.84880124  0.62738101  0.47352853     0.19320
H1508       H  0.89815023  0.51785726  0.59662062     0.19320
C1509       C  0.84974686  0.12880663  0.51849799    -0.06510
C1510       C  0.86409326  0.10302616  0.55737234    -0.17640
C1511       C  0.86738089  0.04742993  0.55775196     0.10690
C1512       C  0.85575085  0.01485712  0.51863748    -0.06430
C1513       C  0.84089606  0.04083944  0.48027015    -0.17670
C1514       C  0.83793664  0.09617637  0.47974721     0.10720
S1515       S  0.88707197  0.02055213  0.60894102    -0.32630
S1516       S  0.81780176  0.12306175  0.42873610    -0.32640
H1517       H  0.82911061  0.17337871  0.43640302     0.28730
H1518       H  0.87031476  0.97813212  0.60700210     0.28720
H1519       H  0.87171123  0.12625013  0.58884035     0.19320
H1520       H  0.83218810  0.01760535  0.44922539     0.19320
C1521       C  0.91083095  0.83668400  0.69181862    -0.06510
C1522       C  0.93443618  0.81935704  0.72058495    -0.17640
C1523       C  0.93710848  0.81073001  0.76619774     0.10690
C1524       C  0.91579693  0.82055040  0.78482851    -0.06430
C1525       C  0.89185487  0.83631572  0.75593519    -0.17670
C1526       C  0.88918793  0.84477467  0.70985591     0.10720
S1527       S  0.46803912  0.78507814  0.79783811    -0.32630
S1528       S  0.85824634  0.86838743  0.67692052    -0.32640
H1529       H  0.86895479  0.90337673  0.65294527     0.28730
H1530       H  0.45718894  0.75011346  0.82174615     0.28720
H1531       H  0.95109033  0.81117249  0.70717416     0.19320
H1532       H  0.87531257  0.84412838  0.76970698     0.19320
C1533       C  0.93164909  0.82163480  0.20371073    -0.06510
C1534       C  0.92391055  0.77606271  0.22000455    -0.17640
C1535       C  0.92955028  0.76895274  0.26697350     0.10690
C1536       C  0.94277139  0.80880783  0.29872662    -0.06430
C1537       C  0.95126508  0.85359239  0.28236827    -0.17670
C1538       C  0.94599081  0.86024300  0.23537076     0.10720
S1539       S  0.92013013  0.70830098  0.28619152    -0.32630
S1540       S  0.95605081  0.92021345  0.21639531    -0.32640
H1541       H  0.97419300  0.93523039  0.25764504     0.28730
H1542       H  0.90827064  0.68482611  0.24294489     0.28720
H1543       H  0.91393834  0.74555420  0.19579077     0.19320
H1544       H  0.96058830  0.88490978  0.30639615     0.19320
C1545       C  0.52796582  0.89069475  0.06653215    -0.06510
C1546       C  0.51671867  0.93458445  0.08370368    -0.17640
C1547       C  0.52528207  0.95167108  0.12953250     0.10690
C1548       C  0.54940273  0.93478896  0.15632056    -0.06430
C1549       C  0.56235963  0.89377500  0.13811764    -0.17670
C1550       C  0.55061047  0.86877778  0.09513528     0.10720
S1551       S  0.50233555  0.98588333  0.15452853    -0.32630
S1552       S  0.56399624  0.80809443  0.07781528    -0.32640
H1553       H  0.57334829  0.79167346  0.12248107     0.28730
H1554       H  0.51141676  0.96463812  0.19742986     0.28720
H1555       H  0.49878994  0.95016707  0.06346982     0.19320
H1556       H  0.58121828  0.88053436  0.15775769     0.19320
C1557       C  0.99493631  0.04854441  0.83461168    -0.06510
C1558       C  0.50595127  0.04269310  0.88141566    -0.17640
C1559       C  0.99234442  0.01891414  0.90838831     0.10690
C1560       C  0.96689210  0.00007271  0.88871810    -0.06430
C1561       C  0.95512747  0.00872068  0.84270932    -0.17670
C1562       C  0.96884226  0.03239296  0.81545863     0.10720
S1563       S  0.50915512  0.01063548  0.96728086    -0.32630
S1564       S  0.95280750  0.03593278  0.75579287    -0.32640
H1565       H  0.97462820  0.01932911  0.74084557     0.28730
H1566       H  0.48668992  0.00987502  0.98307731     0.28720
H1567       H  0.52571539  0.05561379  0.89704858     0.19320
H1568       H  0.93585999  0.99321768  0.82698361     0.19320
C1569       C  0.88060514  0.61724285  0.04322651    -0.06510
C1570       C  0.86600513  0.59311719  0.00182459    -0.17640
C1571       C  0.86110514  0.53823222  0.99597598     0.10690
C1572       C  0.87055305  0.50409028  0.03220652    -0.06430
C1573       C  0.88579004  0.52793948  0.07341937    -0.17670
C1574       C  0.89107439  0.58305378  0.07900330     0.10720
S1575       S  0.84171747  0.51373681  0.94098850    -0.31990
S1576       S  0.91136723  0.60775235  0.13307916    -0.32640
H1577       H  0.90244269  0.66016242  0.12941654     0.28730
H1578       H  0.85039721  0.46119375  0.94549489     0.28720
H1579       H  0.85917339  0.61710666  0.97275515     0.19320
H1580       H  0.89242044  0.50402561  0.10255846     0.19320
C1581       C  0.86011734  0.00443201  0.05216442    -0.06510
C1582       C  0.87765171  0.03798513  0.08392875    -0.17640
C1583       C  0.87524363  0.09394553  0.08418073     0.10690
C1584       C  0.85548771  0.11866590  0.05055883    -0.06430
C1585       C  0.83769715  0.08487186  0.01980658    -0.17670
C1586       C  0.83939016  0.02948433  0.02088500     0.10720
S1587       S  0.89789951  0.13125569  0.12910044    -0.32630
S1588       S  0.81493044  0.99194214  0.97920960    -0.32640
H1589       H  0.81883757  0.94498592  0.00238628     0.28730
H1590       H  0.89217779  0.18108947  0.11148139     0.28720
H1591       H  0.89429088  0.02062998  0.10726267     0.19320
H1592       H  0.82120651  0.10201930  0.99591608     0.19320
C1593       C  0.68383254  0.44370237  0.90279236    -0.06510
C1594       C  0.70703090  0.46417386  0.93114821    -0.17640
C1595       C  0.71617430  0.45014335  0.97637461     0.10690
C1596       C  0.70448703  0.40861843  0.99228517    -0.06430
C1597       C  0.68222484  0.38509210  0.96263296    -0.17670
C1598       C  0.67124211  0.40380215  0.91908277     0.10720
S1599       S  0.74371804  0.48522828  0.01176296    -0.32630
S1600       S  0.64048827  0.37860587  0.88477699    -0.32640
H1601       H  0.63487956  0.34936484  0.91869252     0.28730
H1602       H  0.73318350  0.49027739  0.04946528     0.28720
H1603       H  0.71649426  0.49589409  0.91965018     0.19320
H1604       H  0.67371462  0.35150533  0.97342567     0.19320
C1605       C  0.74041236  0.56099943  0.76486461    -0.06510
C1606       C  0.76047045  0.52715341  0.78551197    -0.17640
C1607       C  0.77592097  0.50228327  0.76017988     0.10690
C1608       C  0.77100186  0.51139047  0.71351792    -0.06430
C1609       C  0.75248739  0.54873766  0.69396980    -0.17670
C1610       C  0.73725922  0.57409385  0.71944744     0.10720
S1611       S  0.80035712  0.45653844  0.78808443    -0.32630
S1612       S  0.71361356  0.62129463  0.69194222    -0.32640
H1613       H  0.71849214  0.65707808  0.73003196     0.28730
H1614       H  0.81664309  0.46314881  0.75939625     0.28720
H1615       H  0.76326081  0.51813186  0.82076892     0.19320
H1616       H  0.74869214  0.55553826  0.65805180     0.19320
C1617       C  0.74751183  0.79745176  0.94742115    -0.06510
C1618       C  0.76353269  0.77583408  0.98632917    -0.17640
C1619       C  0.79074727  0.77419726  0.99389430     0.10690
C1620       C  0.80267510  0.79486279  0.96208315    -0.06430
C1621       C  0.78668996  0.81952526  0.92473280    -0.17670
C1622       C  0.75947850  0.82148674  0.91733622     0.10720
S1623       S  0.80900607  0.74005560  0.04230030    -0.32630
S1624       S  0.73994234  0.85379993  0.86842010    -0.32640
H1625       H  0.76046125  0.86777201  0.85054045     0.28730
H1626       H  0.81706123  0.78742329  0.06797244     0.28720
H1627       H  0.75475029  0.75601103  0.00897868     0.19320
H1628       H  0.79559178  0.83743397  0.90130865     0.19320
C1629       C  0.52453328  0.74126666  0.96463419    -0.06510
C1630       C  0.53123854  0.77873479  0.93735533    -0.17640
C1631       C  0.55612091  0.78174425  0.93129521     0.10690
C1632       C  0.57576225  0.74741176  0.95375620    -0.06430
C1633       C  0.57002794  0.71302977  0.98438564    -0.17670
C1634       C  0.54467534  0.70988554  0.99041590     0.10720
S1635       S  0.56020061  0.82521570  0.88898664    -0.32630
S1636       S  0.53816857  0.66333653  0.02831448    -0.32640
H1637       H  0.56430856  0.65051675  0.04868142     0.28730
H1638       H  0.58737180  0.82478760  0.90142202     0.28720
H1639       H  0.01658518  0.80501333  0.91844339     0.19320
H1640       H  0.58489234  0.68549579  0.00063245     0.19320
C1641       C  0.57689588  0.38734057  0.73183847    -0.06510
C1642       C  0.59801399  0.40606995  0.71888236    -0.17640
C1643       C  0.60641612  0.45737415  0.73042994     0.10690
C1644       C  0.59081835  0.49346676  0.74947703    -0.06430
C1645       C  0.56843677  0.47512698  0.75948457    -0.17670
C1646       C  0.56199936  0.42187856  0.75296991     0.10720
S1647       S  0.63952332  0.47032060  0.72895183    -0.32630
S1648       S  0.53596734  0.40101660  0.77554099    -0.32640
H1649       H  0.53198351  0.35089528  0.75330579     0.28730
H1650       H  0.64162541  0.42941001  0.69700150     0.28720
H1651       H  0.61007187  0.37835142  0.70513607     0.19320
H1652       H  0.55689805  0.50160468  0.77548820     0.19320
C1653       C  0.66341568  0.90404498  0.87177490    -0.06510
C1654       C  0.67674801  0.92663757  0.84380460    -0.17640
C1655       C  0.67517456  0.98066767  0.83842603     0.10690
C1656       C  0.65880713  0.01077965  0.85963482    -0.06430
C1657       C  0.65199460  0.99099614  0.89659808    -0.17670
C1658       C  0.65287674  0.93712693  0.90157915     0.10720
S1659       S  0.69123471  0.00892883  0.80034099    -0.32630
S1660       S  0.63567850  0.91377769  0.93997995    -0.32640
H1661       H  0.61847390  0.88451303  0.90462362     0.28730
H1662       H  0.70590239  0.96397295  0.79365023     0.28720
H1663       H  0.68678644  0.90172584  0.82386020     0.19320
H1664       H  0.64086006  0.01547594  0.91502664     0.19320
C1665       C  0.64645602  0.63661229  0.64815800    -0.06510
C1666       C  0.65457756  0.67987595  0.62898520    -0.17640
C1667       C  0.65377922  0.67922729  0.58284885     0.10690
C1668       C  0.64616921  0.63304398  0.55450832    -0.06430
C1669       C  0.63666026  0.59069217  0.57270011    -0.17670
C1670       C  0.63610201  0.59253653  0.61861520     0.10720
S1671       S  0.66124247  0.74017372  0.56201418    -0.32630
S1672       S  0.61996273  0.53942336  0.63582595    -0.32640
H1673       H  0.60813993  0.57212151  0.66342089     0.28730
H1674       H  0.64218249  0.73414477  0.52024484     0.28720
H1675       H  0.66165675  0.71500926  0.65012801     0.19320
H1676       H  0.62947049  0.55601500  0.55103020     0.19320
C1677       C  0.65923400  0.68214811  0.06519170    -0.06510
C1678       C  0.64679330  0.72388812  0.08343705    -0.17640
C1679       C  0.64415226  0.72311847  0.12789262     0.10690
C1680       C  0.65376579  0.67939336  0.15379800    -0.06430
C1681       C  0.66726541  0.63952920  0.13629563    -0.17670
C1682       C  0.67056069  0.64080951  0.09285460     0.10720
S1683       S  0.62913796  0.77917554  0.14983466    -0.32630
S1684       S  0.69063998  0.59004994  0.07570298    -0.32640
H1685       H  0.70289209  0.62460592  0.05367216     0.28730
H1686       H  0.62039648  0.75293403  0.18216221     0.28720
H1687       H  0.63856907  0.75637974  0.06269452     0.19320
H1688       H  0.67597102  0.60781074  0.15718090     0.19320
C1689       C  0.65974433  0.44917311  0.46727331    -0.06510
C1690       C  0.66592798  0.47357099  0.51135980    -0.17640
C1691       C  0.68093939  0.44723798  0.54852422     0.10690
C1692       C  0.68920302  0.39528577  0.54131115    -0.06430
C1693       C  0.67725301  0.36789761  0.49951283    -0.17670
C1694       C  0.66395916  0.39492275  0.46168695     0.10720
S1695       S  0.69240646  0.48435406  0.60205502    -0.32630
S1696       S  0.65636447  0.35956187  0.40676301    -0.32640
H1697       H  0.63973092  0.39753118  0.38234324     0.28730
H1698       H  0.71890320  0.47310256  0.60724952     0.28720
H1699       H  0.66208004  0.51520967  0.51588458     0.19320
H1700       H  0.68359917  0.32830252  0.49291933     0.19320
C1701       C  0.72600389  0.56740235  0.23490293    -0.06510
C1702       C  0.75118679  0.58470202  0.23661907    -0.17640
C1703       C  0.76460164  0.56355206  0.20547698     0.10690
C1704       C  0.75184658  0.52754315  0.16990367    -0.06430
C1705       C  0.72558087  0.51589929  0.16544676    -0.17670
C1706       C  0.71299135  0.53323523  0.19819045     0.10720
S1707       S  0.79833219  0.58035776  0.21515431    -0.32630
S1708       S  0.68094059  0.50686038  0.19226306    -0.32640
H1709       H  0.67089952  0.55069620  0.21223496     0.28730
H1710       H  0.80688778  0.52860255  0.20846830     0.28720
H1711       H  0.76114228  0.61162007  0.26431184     0.19320
H1712       H  0.71555026  0.48805559  0.13850832     0.19320
C1713       C  0.76138229  0.73713429  0.40681743    -0.06510
C1714       C  0.76791672  0.77717388  0.38212669    -0.17640
C1715       C  0.79345972  0.79425765  0.39129826     0.10690
C1716       C  0.81248950  0.76984159  0.42507856    -0.06430
C1717       C  0.80614878  0.72913585  0.44882325    -0.17670
C1718       C  0.78079261  0.71232106  0.44000643     0.10720
S1719       S  0.80036230  0.84749013  0.35978442    -0.32630
S1720       S  0.77486423  0.65686076  0.46986410    -0.32640
H1721       H  0.76360768  0.68875625  0.49890605     0.28730
H1722       H  0.82110068  0.86902435  0.39433959     0.28720
H1723       H  0.75299895  0.79575519  0.35620923     0.19320
H1724       H  0.82111733  0.71055625  0.47469730     0.19320
C1725       C  0.55927027  0.69084355  0.43088044    -0.06510
C1726       C  0.56529502  0.71571341  0.47436435    -0.17640
C1727       C  0.54704131  0.71771931  0.49938936     0.10690
C1728       C  0.52230241  0.69599689  0.47971630    -0.06430
C1729       C  0.51747428  0.66564583  0.43875725    -0.17670
C1730       C  0.53560710  0.66372712  0.41349341     0.10720
S1731       S  0.55527079  0.75241693  0.55442173    -0.32630
S1732       S  0.52689741  0.62875467  0.35836360    -0.32640
H1733       H  0.54221999  0.65886171  0.33826872     0.28730
H1734       H  0.53434365  0.73302620  0.56858077     0.28720
H1735       H  0.58432428  0.73296394  0.48898731     0.19320
H1736       H  0.49824439  0.64958566  0.42348336     0.19320
C1737       C  0.56905266  0.38649684  0.27539175    -0.06510
C1738       C  0.56116206  0.41906802  0.23833674    -0.17640
C1739       C  0.55413741  0.47148510  0.24490860     0.10690
C1740       C  0.55767557  0.49310337  0.28970491    -0.06430
C1741       C  0.55812098  0.45836449  0.32364443    -0.17670
C1742       C  0.56539544  0.40601660  0.31808234     0.10720
S1743       S  0.54306140  0.51025562  0.19579854    -0.32630
S1744       S  0.57149387  0.36957850  0.36852345    -0.32640
H1745       H  0.59757567  0.35978929  0.36903170     0.28730
H1746       H  0.53345563  0.55197008  0.21925407     0.28720
H1747       H  0.56057898  0.40412283  0.20412017     0.19320
H1748       H  0.55807654  0.47388530  0.35748706     0.19320
C1749       C  0.65487917  0.97006598  0.31061675    -0.06510
C1750       C  0.66383276  0.94126982  0.27712873    -0.17640
C1751       C  0.67434475  0.89105936  0.28518336     0.10690
C1752       C  0.67508421  0.86958693  0.32700841    -0.06430
C1753       C  0.67121414  0.90281473  0.36311857    -0.17670
C1754       C  0.66074235  0.95295120  0.35511359     0.10720
S1755       S  0.68239313  0.85369903  0.23877986    -0.32630
S1756       S  0.65325323  0.99119079  0.40165855    -0.32640
H1757       H  0.65342416  0.04051078  0.38316876     0.28730
H1758       H  0.70474727  0.83071641  0.26675720     0.28720
H1759       H  0.66035428  0.95570458  0.24329533     0.19320
H1760       H  0.67298176  0.88716207  0.39610192     0.19320
loop_ 
_geom_bond_atom_site_label_1 
_geom_bond_atom_site_label_2 
_geom_bond_distance 
_geom_bond_site_symmetry_2 
_ccdc_geom_bond_type 
O1          Zr13   2.413       .  S
O1            C3   1.285       .  A
O2          Zr39   2.406       .  S
O2            C3   1.281       .  A
C3          C872   1.462       .  S
O4          Zr16   2.436       .  S
O4            C6   1.287       .  A
O5          Zr40   2.464       .  S
O5            C6   1.293       .  A
C6          C788   1.491       .  S
O7          Zr16   2.412       .  S
O7            C9   1.282       .  A
O8          Zr39   2.375       .  S
O8            C9   1.278       .  A
C9          C833   1.446       .  S
O10         Zr13   2.450       .  S
O10          C12   1.288       .  A
O11         Zr40   2.328       .  S
O11          C12   1.268       .  A
C12         C845   1.433       .  S
Zr13         O14   2.434       .  S
Zr13         O15   2.435       .  S
Zr13         O19   2.372       .  S
Zr13         O20   2.351       .  S
Zr13         O43   2.353       .  S
Zr13         O45   2.364       .  S
O14          H57   0.990       .  S
O15          H56   0.990       .  S
O15          H60   0.990       .  S
Zr16         O17   2.432       .  S
Zr16         O18   2.433       .  S
Zr16         O20   2.370       .  S
Zr16         O19   2.356       .  S
Zr16         O44   2.384       .  S
Zr16         O46   2.351       .  S
O17          H58   0.990       .  S
O17          H61   0.990       .  S
O18          H51   0.990       .  S
O19         Zr39   2.373       .  S
O20         Zr40   2.374       .  S
O20          H47   0.964       .  S
O21         Zr33   2.406       .  S
O21          C23   1.281       .  A
O22         Zr40   2.418       .  S
O22          C23   1.289       .  A
C23         C860   1.477       .  S
O24         Zr36   2.463       .  S
O24          C26   1.293       .  A
O25         Zr39   2.416       .  S
O25          C26   1.283       .  A
C26         C821   1.477       .  S
O27         Zr36   2.480       .  S
O27          C29   1.296       .  A
O28         Zr40   2.378       .  S
O28          C29   1.276       .  A
C29         C809   1.464       .  S
O30         Zr33   2.443       .  S
O30          C32   1.287       .  A
O31         Zr39   2.401       .  S
O31          C32   1.280       .  A
C32         C800   1.457       .  S
Zr33         O34   2.436       .  S
Zr33         O35   2.436       .  S
Zr33         O41   2.398       .  S
Zr33         O42   2.354       .  S
Zr33         O45   2.366       .  S
Zr33         O43   2.368       .  S
O34          H54   0.990       .  S
O34          H59   0.990       .  S
O35          H55   0.990       .  S
Zr36         O37   2.435       .  S
Zr36         O38   2.424       .  S
Zr36         O42   2.370       .  S
Zr36         O41   2.357       .  S
Zr36         O46   2.362       .  S
Zr36         O44   2.367       .  S
O37          H53   0.990       .  S
O38          H52   0.990       .  S
O38          H62   0.990       .  S
Zr39         O42   2.363       .  S
Zr39         O44   2.388       .  S
Zr39         O45   2.383       .  S
Zr40         O41   2.386       .  S
Zr40         O43   2.378       .  S
Zr40         O46   2.362       .  S
O41          H49   0.965       .  S
O44          H48   0.966       .  S
O45          H50   0.966       .  S
O63         Zr75   2.405       .  S
O63          C65   1.280       .  A
O64        Zr101   2.476       .  S
O64          C65   1.297       .  A
C65         C752   1.474       .  S
O66         Zr78   2.393       .  S
O66          C68   1.259       .  A
O67        Zr102   2.504       .  S
O67          C68   1.295       .  A
C68         C713   1.468       .  S
O69         Zr78   2.429       .  S
O69          C71   1.285   1_556  A
O70        Zr101   2.402   1_554  S
O70          C71   1.281       .  A
C71         C797   1.466       .  S
O72         Zr75   2.461       .  S
O72          C74   1.287       .  A
O73        Zr102   2.382       .  S
O73          C74   1.263       .  A
C74         C764   1.471       .  S
Zr75         O76   2.435       .  S
Zr75         O77   2.433       .  S
Zr75         O81   2.386       .  S
Zr75         O82   2.359       .  S
Zr75        O105   2.348       .  S
Zr75        O107   2.376       .  S
O76         H119   0.991       .  S
O77         H118   0.990       .  S
O77         H122   0.990       .  S
Zr78         O79   2.441       .  S
Zr78         O80   2.416       .  S
Zr78         O82   2.390       .  S
Zr78         O81   2.342       .  S
Zr78        O106   2.361       .  S
Zr78        O108   2.395       .  S
O79         H120   0.990       .  S
O79         H123   0.990       .  S
O80         H113   0.986       .  S
O81        Zr101   2.375       .  S
O82        Zr102   2.406       .  S
O82         H109   0.960       .  S
O83         Zr95   2.465       .  S
O83          C85   1.294       .  A
O84        Zr102   2.443       .  S
O84          C85   1.291       .  A
C85         C785   1.500       .  S
O86         Zr98   2.395       .  S
O86          C88   1.267       .  A
O87        Zr101   2.507       .  S
O87          C88   1.292       .  A
C88         C737   1.490       .  S
O89         Zr98   2.430       .  S
O89          C91   1.282       .  A
O90        Zr102   2.406       .  S
O90          C91   1.283       .  A
C91         C725   1.453       .  S
O92         Zr95   2.458       .  S
O92          C94   1.294       .  A
O93        Zr101   2.343       .  S
O93          C94   1.273       .  A
C94         C773   1.459       .  S
Zr95         O96   2.436       .  S
Zr95         O97   2.428       .  S
Zr95        O103   2.374       .  S
Zr95        O104   2.338       .  S
Zr95        O107   2.384       .  S
Zr95        O105   2.353       .  S
O96         H116   0.990       .  S
O96         H121   0.990       .  S
O97         H117   0.990       .  S
Zr98         O99   2.437       .  S
Zr98        O100   2.438       .  S
Zr98        O104   2.356       .  S
Zr98        O103   2.360       .  S
Zr98        O108   2.361       .  S
Zr98        O106   2.395       .  S
O99         H115   0.990       .  S
O100        H114   0.990       .  S
O100        H124   0.988       .  S
Zr101       O104   2.380       .  S
Zr101       O106   2.387       .  S
Zr101       O107   2.419       .  S
Zr102       O103   2.374       .  S
Zr102       O105   2.390       .  S
Zr102       O108   2.387       .  S
O103        H111   0.963       .  S
O106        H110   0.966       .  S
O107        H112   0.966       .  S
O125      Zr1017   2.411       .  S
O125        C127   1.266   1_655  A
O126      Zr1043   2.494   1_455  S
O126        C127   1.288   1_556  A
C127        C665   1.478       .  S
O128       Zr140   2.391       .  S
O128        C130   1.277       .  A
O129       Zr164   2.589       .  S
O129        C130   1.321       .  A
C130        C689   1.518       .  S
O131       Zr140   2.513   1_556  S
O131       C1013   1.295       .  A
O132      Zr1043   2.372       .  S
O132        C133   1.268       .  A
C133       O1011   1.295       .  A
C133        C749   1.501   1_655  S
O134       Zr137   2.422       .  S
O134        C136   1.281       .  A
O135       Zr164   2.469       .  S
O135        C136   1.295       .  A
C136        C653   1.486       .  S
Zr137      O1005   2.411       .  S
Zr137       O138   2.436       .  S
Zr137       O139   2.437       .  S
Zr137       O143   2.360       .  S
Zr137       O144   2.361       .  S
Zr137       O167   2.334       .  S
Zr137       O169   2.405       .  S
O138       H1061   0.988       .  S
O139        H180   0.985       .  S
O139        H184   0.988       .  S
Zr140       O141   2.438       .  S
Zr140       O142   2.435   1_554  S
Zr140       O144   2.407       .  S
Zr140       O143   2.313       .  S
Zr140       O168   2.371   1_554  S
Zr140       O170   2.404   1_554  S
O141        H182   0.990       .  S
O141        H185   0.990       .  S
O142        H175   0.990       .  S
O143       Zr163   2.375   1_554  S
O144       Zr164   2.396       .  S
O144        H171   0.965       .  S
O145       Zr157   2.346       .  S
O145        C147   1.266   1_556  A
O146       Zr164   2.600       .  S
O146        C147   1.321       .  A
C147        C701   1.509   1_565  S
O148       Zr160   2.442       .  S
O148        C150   1.289       .  A
O149       Zr163   2.429       .  S
O149        C150   1.290       .  A
C150        C644   1.482       .  S
O151       Zr160   2.530       .  S
O151        C153   1.306       .  A
O152       Zr164   2.385       .  S
O152        C153   1.281   1_554  A
C153        C740   1.500       .  S
O154       Zr157   2.496       .  S
O154        C156   1.296       .  A
O155       Zr163   2.390       .  S
O155        C156   1.280       .  A
C156        C680   1.484   1_565  S
Zr157       O158   2.436       .  S
Zr157       O159   2.438   1_566  S
Zr157       O165   2.400       .  S
Zr157       O166   2.318       .  S
Zr157       O169   2.338   1_556  S
Zr157       O167   2.417   1_556  S
O158        H178   0.990       .  S
O158        H183   0.990   1_565  S
O159        H179   0.988       .  S
Zr160       O161   2.434       .  S
Zr160       O162   2.434       .  S
Zr160       O166   2.394       .  S
Zr160       O165   2.347       .  S
Zr160       O170   2.347       .  S
Zr160       O168   2.407       .  S
O161        H177   0.990       .  S
O162        H176   0.990       .  S
O162        H186   0.990       .  S
Zr163      O1006   2.494       .  S
Zr163      O1012   2.372       .  S
Zr163       O166   2.375       .  S
Zr163       O168   2.405       .  S
Zr163       O169   2.382   1_556  S
Zr164       O165   2.415   1_554  S
Zr164       O167   2.380       .  S
Zr164       O170   2.393   1_554  S
O165        H173   0.964       .  S
O168        H172   0.966       .  S
O169        H174   0.963       .  S
H181       O1018   0.988       .  S
O187      Zr1079   2.410       .  S
O187        C189   1.266   1_655  A
O188      Zr1105   2.501   1_455  S
O188        C189   1.295       .  A
C189        C596   1.482       .  S
O190       Zr202   2.357       .  S
O190        C192   1.271       .  A
O191       Zr226   2.601       .  S
O191        C192   1.323       .  A
C192        C617   1.518       .  S
O193       Zr202   2.423       .  S
O193       C1075   1.282       .  A
O194      Zr1105   2.358       .  S
O194        C195   1.278   1_655  A
C195       O1073   1.282   1_455  A
C195        C848   1.432       .  S
O196       Zr199   2.424       .  S
O196        C198   1.284       .  A
O197       Zr226   2.442       .  S
O197        C198   1.290       .  A
C198        C641   1.484       .  S
Zr199      O1067   2.410       .  S
Zr199       O200   2.437       .  S
Zr199       O201   2.448       .  S
Zr199       O205   2.360       .  S
Zr199       O206   2.376       .  S
Zr199       O229   2.350       .  S
Zr199       O231   2.409       .  S
O200       H1123   0.990       .  S
O201        H242   0.987       .  S
O201        H246   0.988       .  S
Zr202       O203   2.435       .  S
Zr202       O204   2.434       .  S
Zr202       O206   2.388       .  S
Zr202       O205   2.305       .  S
Zr202       O230   2.365       .  S
Zr202       O232   2.361       .  S
O203        H244   0.990       .  S
O203        H247   0.990       .  S
O204        H237   0.990       .  S
O205       Zr225   2.361       .  S
O206       Zr226   2.387       .  S
O206        H233   0.965       .  S
O207       Zr219   2.374       .  S
O207        C209   1.263       .  A
O208       Zr226   2.581       .  S
O208        C209   1.313       .  A
C209        C632   1.519   1_565  S
O210       Zr222   2.395       .  S
O210        C212   1.280       .  A
O211       Zr225   2.486       .  S
O211        C212   1.299       .  A
C212        C656   1.485       .  S
O213       Zr222   2.439       .  S
O213        C215   1.287       .  A
O214       Zr226   2.355       .  S
O214        C215   1.278       .  A
C215        C836   1.431       .  S
O216       Zr219   2.469       .  S
O216        C218   1.290       .  A
O217       Zr225   2.406       .  S
O217        C218   1.284       .  A
C218        C605   1.484       .  S
Zr219       O220   2.440       .  S
Zr219       O221   2.434   1_565  S
Zr219       O227   2.398       .  S
Zr219       O228   2.339       .  S
Zr219       O231   2.359       .  S
Zr219       O229   2.409       .  S
O220        H240   0.990       .  S
O220        H245   0.990   1_565  S
O221        H241   0.989       .  S
Zr222       O223   2.434       .  S
Zr222       O224   2.434       .  S
Zr222       O228   2.373       .  S
Zr222       O227   2.345       .  S
Zr222       O232   2.339       .  S
Zr222       O230   2.372       .  S
O223        H239   0.990       .  S
O224        H238   0.990       .  S
O224        H248   0.990       .  S
Zr225      O1068   2.501       .  S
Zr225      O1074   2.358       .  S
Zr225       O228   2.372       .  S
Zr225       O230   2.394       .  S
Zr225       O231   2.394       .  S
Zr226       O227   2.416       .  S
Zr226       O229   2.399       .  S
Zr226       O232   2.387       .  S
O227        H235   0.964       .  S
O230        H234   0.966       .  S
O231        H236   0.963       .  S
H243       O1080   0.990       .  S
O249       Zr261   2.516       .  S
O249        C251   1.299       .  A
O250       Zr287   2.328       .  S
O250        C251   1.270       .  A
C251        C824   1.480       .  S
O252       Zr264   2.423   1_556  S
O252        C254   1.282       .  A
O253       Zr288   2.431   1_556  S
O253        C254   1.288       .  A
C254        C545   1.484       .  S
O255       Zr264   2.386       .  S
O255        C257   1.261       .  A
O256       Zr287   2.511       .  S
O256        C257   1.297       .  A
C257        C716   1.479   1_554  S
O258       Zr261   2.349       .  S
O258        C260   1.261       .  A
O259       Zr288   2.617       .  S
O259        C260   1.321       .  A
C260        C692   1.518       .  S
Zr261       O262   2.442       .  S
Zr261       O263   2.435       .  S
Zr261       O267   2.337       .  S
Zr261       O268   2.444       .  S
Zr261       O291   2.399       .  S
Zr261       O293   2.333       .  S
O262        H305   0.990       .  S
O263        H304   0.990       .  S
O263        H308   0.990       .  S
Zr264       O265   2.433   1_554  S
Zr264       O266   2.434   1_554  S
Zr264       O268   2.346       .  S
Zr264       O267   2.403       .  S
Zr264       O292   2.366       .  S
Zr264       O294   2.342       .  S
O265        H306   0.990       .  S
O265        H309   0.990       .  S
O266        H299   0.990       .  S
O267       Zr287   2.352       .  S
O268       Zr288   2.389       .  S
O268        H295   0.965   1_554  S
O269       Zr281   2.543       .  S
O269        C271   1.308       .  A
O270       Zr288   2.371       .  S
O270        C271   1.275       .  A
C271        C569   1.517       .  S
O272       Zr284   2.560       .  S
O272        C274   1.310       .  A
O273       Zr287   2.334       .  S
O273        C274   1.269       .  A
C274        C581   1.483       .  S
O275       Zr284   2.371       .  S
O275        C277   1.275       .  A
O276       Zr288   2.591       .  S
O276        C277   1.322       .  A
C277        C704   1.510       .  S
O278       Zr281   2.430       .  S
O278        C280   1.288       .  A
O279       Zr287   2.446       .  S
O279        C280   1.292       .  A
C280        C557   1.471       .  S
Zr281       O282   2.437       .  S
Zr281       O283   2.434       .  S
Zr281       O289   2.339       .  S
Zr281       O290   2.404       .  S
Zr281       O293   2.399       .  S
Zr281       O291   2.348       .  S
O282        H302   0.990       .  S
O282        H307   0.990       .  S
O283        H303   0.990       .  S
Zr284       O285   2.434       .  S
Zr284       O286   2.437       .  S
Zr284       O290   2.324       .  S
Zr284       O289   2.431       .  S
Zr284       O294   2.415       .  S
Zr284       O292   2.315       .  S
O285        H301   0.990       .  S
O286        H300   0.990       .  S
O286        H310   0.990       .  S
Zr287       O290   2.378       .  S
Zr287       O292   2.374       .  S
Zr287       O293   2.385       .  S
Zr288       O289   2.407       .  S
Zr288       O291   2.397       .  S
Zr288       O294   2.406       .  S
O289        H297   0.965       .  S
O292        H296   0.963       .  S
O293        H298   0.966       .  S
O311       Zr323   2.436       .  S
O311        C313   1.284       .  A
O312       Zr349   2.379       .  S
O312        C313   1.277       .  A
C313        C728   1.449       .  S
O314       Zr326   2.436       .  S
O314        C316   1.286       .  A
O315       Zr350   2.421       .  S
O315        C316   1.287       .  A
C316        C560   1.479       .  S
O317       Zr326   2.365       .  S
O317        C319   1.276       .  A
O318       Zr349   2.476       .  S
O318        C319   1.295       .  A
C319        C812   1.470       .  S
O320       Zr323   2.328       .  S
O320        C322   1.266       .  A
O321       Zr350   2.624       .  S
O321        C322   1.328       .  A
C322        C620   1.515       .  S
Zr323       O324   2.435       .  S
Zr323       O325   2.436       .  S
Zr323       O329   2.340       .  S
Zr323       O330   2.393       .  S
Zr323       O353   2.389       .  S
Zr323       O355   2.334       .  S
O324        H367   0.990       .  S
O325        H366   0.990       .  S
O325        H370   0.990       .  S
Zr326       O327   2.431       .  S
Zr326       O328   2.435       .  S
Zr326       O330   2.327       .  S
Zr326       O329   2.384       .  S
Zr326       O354   2.359       .  S
Zr326       O356   2.353       .  S
O327        H368   0.989       .  S
O327        H371   0.989       .  S
O328        H361   0.990       .  S
O329       Zr349   2.374       .  S
O330       Zr350   2.386       .  S
O330        H357   0.965       .  S
O331       Zr343   2.532       .  S
O331        C333   1.305       .  A
O332       Zr350   2.388       .  S
O332        C333   1.280       .  A
C333        C521   1.497       .  S
O334       Zr346   2.542       .  S
O334        C336   1.306       .  A
O335       Zr349   2.390       .  S
O335        C336   1.279       .  A
C336        C536   1.504       .  S
O337       Zr346   2.379       .  S
O337        C339   1.276       .  A
O338       Zr350   2.589       .  S
O338        C339   1.322       .  A
C339        C629   1.506       .  S
O340       Zr343   2.425       .  S
O340        C342   1.286       .  A
O341       Zr349   2.452       .  S
O341        C342   1.294       .  A
C342        C548   1.480       .  S
Zr343       O344   2.437       .  S
Zr343       O345   2.434       .  S
Zr343       O351   2.325       .  S
Zr343       O352   2.423       .  S
Zr343       O355   2.384       .  S
Zr343       O353   2.356       .  S
O344        H364   0.990       .  S
O344        H369   0.990       .  S
O345        H365   0.990       .  S
Zr346       O347   2.435       .  S
Zr346       O348   2.436       .  S
Zr346       O352   2.353       .  S
Zr346       O351   2.423       .  S
Zr346       O356   2.412       .  S
Zr346       O354   2.320       .  S
O347        H363   0.990       .  S
O348        H362   0.990       .  S
O348        H372   0.990       .  S
Zr349       O352   2.383       .  S
Zr349       O354   2.374       .  S
Zr349       O355   2.389       .  S
Zr350       O351   2.410       .  S
Zr350       O353   2.393       .  S
Zr350       O356   2.407       .  S
O351        H359   0.963       .  S
O354        H358   0.964       .  S
O355        H360   0.965       .  S
O373       Zr385   2.412       .  S
O373        C375   1.268   1_545  A
O374       Zr411   2.478   1_565  S
O374        C375   1.287       .  A
C375        C668   1.479       .  S
O376       Zr388   2.360       .  S
O376        C378   1.273       .  A
O377       Zr412   2.538       .  S
O377        C378   1.309       .  A
C378        C584   1.498       .  S
O379       Zr388   2.397       .  S
O379        C381   1.278       .  A
O380       Zr411   2.423       .  S
O380        C381   1.288       .  A
C381        C869   1.453   1_545  S
O382       Zr385   2.401       .  S
O382        C384   1.280       .  A
O383       Zr412   2.476       .  S
O383        C384   1.297       .  A
C384        C512   1.474       .  S
Zr385       O386   2.436       .  S
Zr385       O387   2.440       .  S
Zr385       O391   2.377       .  S
Zr385       O392   2.358       .  S
Zr385       O415   2.356       .  S
Zr385       O417   2.383       .  S
O386        H429   0.990       .  S
O387        H428   0.986       .  S
O387        H432   0.988       .  S
Zr388       O389   2.437       .  S
Zr388       O390   2.436       .  S
Zr388       O392   2.362       .  S
Zr388       O391   2.344       .  S
Zr388       O416   2.354       .  S
Zr388       O418   2.378       .  S
O389        H430   0.989       .  S
O389        H433   0.990       .  S
O390        H423   0.990       .  S
O391       Zr411   2.381       .  S
O392       Zr412   2.383       .  S
O392        H419   0.960       .  S
O393       Zr405   2.376       .  S
O393        C395   1.275       .  A
O394       Zr412   2.524       .  S
O394        C395   1.307       .  A
C395       C1452   1.487   1_455  S
O396       Zr408   2.421       .  S
O396        C398   1.283       .  A
O397       Zr411   2.456       .  S
O397        C398   1.292       .  A
C398        C497   1.488       .  S
O399       Zr408   2.434       .  S
O399        C401   1.285       .  A
O400       Zr412   2.437       .  S
O400        C401   1.293       .  A
C401        C857   1.487       .  S
O402       Zr405   2.447       .  S
O402        C404   1.287       .  A
O403       Zr411   2.409       .  S
O403        C404   1.287       .  A
C404       C1488   1.476   1_455  S
Zr405       O406   2.440       .  S
Zr405      O1287   2.435   1_455  S
Zr405       O413   2.354       .  S
Zr405       O414   2.343       .  S
Zr405       O417   2.334       .  S
Zr405       O415   2.397       .  S
O406        H426   0.990       .  S
O406       H1311   0.990   1_455  S
O407      Zr1285   2.435       .  S
O407        H427   0.990       .  S
Zr408       O409   2.434       .  S
Zr408       O410   2.433       .  S
Zr408       O414   2.368       .  S
Zr408       O413   2.375       .  S
Zr408       O418   2.356       .  S
Zr408       O416   2.362       .  S
O409        H425   0.991       .  S
O410        H424   0.990       .  S
O410        H434   0.990       .  S
Zr411       O414   2.376       .  S
Zr411       O416   2.395       .  S
Zr411       O417   2.388       .  S
Zr412       O413   2.411       .  S
Zr412       O415   2.400       .  S
Zr412       O418   2.409       .  S
O413        H421   0.962       .  S
O416        H420   0.966       .  S
O417        H422   0.958       .  S
H431       O1286   0.990       .  S
O435       Zr447   2.430   1_565  S
O435        C437   1.269       .  A
O436       Zr473   2.487   1_565  S
O436        C437   1.284       .  A
C437        C593   1.492       .  S
O438       Zr450   2.400       .  S
O438        C440   1.271       .  A
O439       Zr474   2.563       .  S
O439        C440   1.309       .  A
C440        C533   1.537       .  S
O441       Zr450   2.401       .  S
O441        C443   1.278       .  A
O442       Zr473   2.409       .  S
O442        C443   1.289       .  A
C443        C776   1.460       .  S
O444       Zr447   2.411       .  S
O444        C446   1.283       .  A
O445       Zr474   2.457       .  S
O445        C446   1.294       .  A
C446        C500   1.490       .  S
Zr447       O448   2.443   1_545  S
Zr447       O449   2.471       .  S
Zr447       O453   2.377       .  S
Zr447       O454   2.340       .  S
Zr447       O477   2.334       .  S
Zr447       O479   2.396       .  S
O448        H491   0.990       .  S
O449        H494   0.990       .  S
O449       H1370   0.989       .  S
Zr450       O451   2.440       .  S
Zr450       O452   2.438       .  S
Zr450       O454   2.375       .  S
Zr450       O453   2.354       .  S
Zr450       O478   2.360       .  S
Zr450       O480   2.368       .  S
O451        H492   0.989       .  S
O451        H495   0.988       .  S
O452        H485   0.989       .  S
O453       Zr473   2.390       .  S
O454       Zr474   2.376       .  S
O454        H481   0.964       .  S
O455       Zr467   2.380   1_655  S
O455        C457   1.277   1_655  A
O456       Zr474   2.521       .  S
O456        C457   1.307       .  A
C457       C1404   1.486   1_455  S
O458       Zr470   2.411       .  S
O458        C460   1.282       .  A
O459       Zr473   2.453       .  S
O459        C460   1.294       .  A
C460        C509   1.473       .  S
O461       Zr470   2.418       .  S
O461        C463   1.284       .  A
O462       Zr474   2.392       .  S
O462        C463   1.285       .  A
C463        C761   1.448       .  S
O464      Zr1347   2.483       .  S
O464        C466   1.295       .  A
O465       Zr473   2.411       .  S
O465       C1346   1.285       .  A
C466       O1345   1.285       .  A
C466        C677   1.497       .  S
Zr467      O1344   2.483       .  S
Zr467       O468   2.439   1_455  S
Zr467      O1349   2.435   1_455  S
Zr467       O475   2.380       .  S
Zr467       O476   2.331       .  S
Zr467       O479   2.355       .  S
Zr467       O477   2.402       .  S
O468        H488   0.990   1_655  S
O468       H1373   0.990       .  S
O469      Zr1347   2.435       .  S
O469        H489   0.990       .  S
Zr470       O471   2.433       .  S
Zr470       O472   2.430       .  S
Zr470       O476   2.369       .  S
Zr470       O475   2.355       .  S
Zr470       O480   2.359       .  S
Zr470       O478   2.353       .  S
O471        H487   0.990       .  S
O472        H486   0.990       .  S
O472        H496   0.989       .  S
Zr473       O476   2.377       .  S
Zr473       O478   2.392       .  S
Zr473       O479   2.404       .  S
Zr474       O475   2.422       .  S
Zr474       O477   2.377       .  S
Zr474       O480   2.401       .  S
O475        H483   0.965       .  S
O478        H482   0.966       .  S
O479        H484   0.966       .  S
H490       O1329   0.989       .  S
H493       O1348   0.990       .  S
C497        C498   1.411       .  A
C497        C502   1.409       .  A
C498        C499   1.398       .  A
C498        H507   1.084       .  S
C499        C500   1.412       .  A
C499        S503   1.803       .  S
C500        C501   1.413       .  A
C501        C502   1.401       .  A
C501        H508   1.084       .  S
C502        S504   1.797       .  S
S503        H506   1.408       .  S
S504        H505   1.406       .  S
C509        C510   1.396       .  A
C509        C514   1.419       .  A
C510        C511   1.394   1_556  A
C510        H519   1.084       .  S
C511        C512   1.420       .  A
C511        S515   1.804       .  S
C512        C513   1.399   1_554  A
C513        C514   1.403       .  A
C513        H520   1.084   1_556  S
C514        S516   1.804       .  S
S515        H518   1.402       .  S
S516        H517   1.407       .  S
C521        C522   1.406       .  A
C521        C526   1.418       .  A
C522        C523   1.417       .  A
C522        H531   1.083       .  S
C523        C524   1.413       .  A
C523        S527   1.797       .  S
C524       C1337   1.486       .  S
C524        C525   1.404       .  A
C525        C526   1.404       .  A
C525        H532   1.085       .  S
C526        S528   1.800       .  S
S527       H1410   1.407       .  S
S528        H529   1.404       .  S
H530       S1407   1.407       .  S
C533        C534   1.411       .  A
C533        C538   1.441       .  A
C534        C535   1.424       .  A
C534        H543   1.083       .  S
C535        C536   1.421       .  A
C535        S539   1.794       .  S
C536        C537   1.391       .  A
C537        C538   1.406       .  A
C537        H544   1.084       .  S
C538        S540   1.803       .  S
S539        H542   1.404       .  S
S540        H541   1.408       .  S
C545        C546   1.402       .  A
C545        C550   1.419       .  A
C546        C547   1.398       .  A
C546        H555   1.084       .  S
C547        C548   1.420       .  A
C547        S551   1.805       .  S
C548        C549   1.401       .  A
C549        C550   1.399       .  A
C549        H556   1.084       .  S
C550        S552   1.804       .  S
S551        H554   1.403       .  S
S552        H553   1.408       .  S
C557        C558   1.398       .  A
C557        C562   1.414       .  A
C558        C559   1.398       .  A
C558        H567   1.084       .  S
C559        C560   1.418       .  A
C559        S563   1.799       .  S
C560        C561   1.403       .  A
C561        C562   1.397       .  A
C561        H568   1.084       .  S
C562        S564   1.804       .  S
S563        H566   1.401       .  S
S564        H565   1.407       .  S
C569        C570   1.406       .  A
C569        C574   1.435       .  A
C570        C571   1.412       .  A
C570        H579   1.083       .  S
C571        C572   1.421       .  A
C571        S575   1.802       .  S
C572       C1275   1.487       .  S
C572        C573   1.397       .  A
C573        C574   1.407       .  A
C573        H580   1.085       .  S
C574        S576   1.804       .  S
S575       H1458   1.403       .  S
S576        H577   1.406       .  S
H578       S1455   1.403   1_455  S
C581        C582   1.414       .  A
C581        C586   1.409       .  A
C582        C583   1.415       .  A
C582        H591   1.084       .  S
C583        C584   1.414       .  A
C583        S587   1.799       .  S
C584        C585   1.415       .  A
C585        C586   1.403       .  A
C585        H592   1.085       .  S
C586        S588   1.806       .  S
S587        H590   1.405       .  S
S588        H589   1.406       .  S
C593        C594   1.387       .  A
C593        C598   1.412       .  A
C594       C1475   1.381       .  A
C594       H1483   1.053       .  S
C595       C1474   1.381       .  A
C595       C1476   1.392       .  A
C595        S599   1.785       .  S
C596        C597   1.422       .  A
C596       C1475   1.392       .  A
C597        C598   1.422       .  A
C597        H604   1.083       .  S
C598        S600   1.798       .  S
S599        H602   1.407       .  S
S600        H601   1.403       .  S
H603       C1474   1.053       .  S
C605        C606   1.409   1_565  A
C605       C1490   1.408   1_565  A
C606        C607   1.412       .  A
C606        H615   1.083       .  S
C607        C608   1.417       .  A
C607        S611   1.802       .  S
C608       C1284   1.476       .  S
C608       C1489   1.396       .  A
C609        C610   1.383       .  A
C609       C1488   1.396   1_455  A
C609        H616   1.082       .  S
C610       C1485   1.408   1_445  A
C610        S612   1.787       .  S
S611        H614   1.406       .  S
S612        H613   1.407       .  S
C617        C618   1.412       .  A
C617        C622   1.424       .  A
C618        C619   1.428       .  A
C618        H627   1.083       .  S
C619        C620   1.426       .  A
C619        S623   1.797       .  S
C620        C621   1.413       .  A
C621        C622   1.417       .  A
C621        H628   1.084       .  S
C622        S624   1.805       .  S
S623        H626   1.406       .  S
S624        H625   1.407       .  S
C629        C630   1.418       .  A
C629        C634   1.413       .  A
C630        C631   1.421       .  A
C630        H639   1.083       .  S
C631        C632   1.417       .  A
C631        S635   1.799       .  S
C632        C633   1.418       .  A
C633        C634   1.413       .  A
C633        H640   1.084       .  S
C634        S636   1.803       .  S
S635        H638   1.404   1_545  S
S636        H637   1.407       .  S
C641        C642   1.409       .  A
C641        C646   1.411       .  A
C642        C643   1.392       .  A
C642        H651   1.084       .  S
C643        C644   1.411       .  A
C643       S1527   1.806       .  S
C644        C645   1.411       .  A
C645        C646   1.405       .  A
C645        H652   1.084       .  S
C646        S648   1.801       .  S
S647       C1523   1.806       .  S
S647        H650   1.407       .  S
S648        H649   1.405       .  S
C653        C654   1.399       .  A
C653        C658   1.418       .  A
C654        C655   1.406       .  A
C654        H663   1.083       .  S
C655        C656   1.420       .  A
C655        S659   1.809       .  S
C656        C657   1.400       .  A
C657        C658   1.407       .  A
C657        H664   1.084       .  S
C658        S660   1.804       .  S
S659        H662   1.407       .  S
S660        H661   1.407       .  S
C665        C666   1.397       .  A
C665        C670   1.414       .  A
C666        C667   1.397       .  A
C666        H675   1.073   1_455  S
C667        C668   1.402       .  A
C667        S671   1.792       .  S
C668        C669   1.407       .  A
C669        C670   1.414       .  A
C669        H676   1.083       .  S
C670        S672   1.797       .  S
S671        H674   1.406       .  S
S672        H673   1.407       .  S
C677        C682   1.418       .  A
C677       C1558   1.409       .  A
C678       C1557   1.409   1_455  A
C678       C1559   1.402   1_455  A
C678        H687   1.084       .  S
C679        C680   1.412       .  A
C679       C1558   1.402       .  A
C679       S1563   1.806       .  S
C680        C681   1.406       .  A
C681        C682   1.411       .  A
C681        H688   1.084   1_545  S
C682        S684   1.802       .  S
S683       C1559   1.806   1_455  S
S683        H686   1.406   1_455  S
S684        H685   1.407       .  S
C689        C690   1.409       .  A
C689        C694   1.424       .  A
C690        C691   1.418   1_554  A
C690        H699   1.084   1_554  S
C691        C692   1.425   1_556  A
C691        S695   1.805       .  S
C692        C693   1.414       .  A
C693        C694   1.427       .  A
C693        H700   1.083       .  S
C694        S696   1.802       .  S
S695        H698   1.407       .  S
S696        H697   1.406       .  S
C701        C702   1.413       .  A
C701        C706   1.421       .  A
C702        C703   1.426       .  A
C702        H711   1.084       .  S
C703        C704   1.425       .  A
C703        S707   1.804       .  S
C704        C705   1.410       .  A
C705        C706   1.411       .  A
C705        H712   1.084   1_554  S
C706        S708   1.806   1_544  S
S707        H710   1.402       .  S
S708        H709   1.407   1_556  S
C713        C714   1.399       .  A
C713        C718   1.412       .  A
C714        C715   1.401       .  A
C714        H723   1.083       .  S
C715        C716   1.410       .  A
C715        S719   1.795   1_556  S
C716        C717   1.408       .  A
C717        C718   1.409       .  A
C717        H724   1.083       .  S
C718        S720   1.803       .  S
S719        H722   1.407       .  S
S720        H721   1.407       .  S
C725        C726   1.396       .  A
C725        C730   1.411       .  A
C726        C727   1.391       .  A
C726        H735   1.084       .  S
C727        C728   1.410       .  A
C727        S731   1.800       .  S
C728        C729   1.395       .  A
C729        C730   1.391       .  A
C729        H736   1.084       .  S
C730        S732   1.797       .  S
S731        H734   1.406       .  S
S732        H733   1.405       .  S
C737        C738   1.400       .  A
C737        C742   1.421       .  A
C738        C739   1.408       .  A
C738        H747   1.084   1_556  S
C739        C740   1.423       .  A
C739        S743   1.799   1_556  S
C740        C741   1.402       .  A
C741        C742   1.408       .  A
C741        H748   1.083       .  S
C742        S744   1.809       .  S
S743        H746   1.408       .  S
S744        H745   1.406       .  S
C749        C750   1.413       .  A
C749        C754   1.414       .  A
C750        C751   1.392       .  A
C750       H1639   1.084       .  S
C751        C752   1.407       .  A
C751        S755   1.807       .  S
C752        C753   1.411       .  A
C753        C754   1.417       .  A
C753        H760   1.083   1_556  S
C754        S756   1.803   1_556  S
S755        H758   1.397       .  S
S756        H757   1.407       .  S
H759       C1630   1.084       .  S
C761        C762   1.390       .  A
C761        C766   1.412       .  A
C762        C763   1.384       .  A
C762        H771   1.084       .  S
C763        C764   1.426       .  A
C763        S767   1.816       .  S
C764        C765   1.403       .  A
C765        C766   1.394       .  A
C765        H772   1.084       .  S
C766        S768   1.807       .  S
S767        H770   1.407       .  S
S768        H769   1.401       .  S
C773        C774   1.401       .  A
C773        C778   1.419       .  A
C774        C775   1.392       .  A
C774        H783   1.083       .  S
C775        C776   1.408   1_565  A
C775        S779   1.804   1_565  S
C776        C777   1.397   1_545  A
C777        C778   1.386       .  A
C777        H784   1.085   1_565  S
C778        S780   1.801       .  S
S779        H782   1.407   1_545  S
S780        H781   1.403       .  S
C785        C786   1.404       .  A
C785        C790   1.420       .  A
C786        C787   1.397       .  A
C786        H795   1.084       .  S
C787        C788   1.417       .  A
C787        S791   1.801       .  S
C788        C789   1.403       .  A
C789        C790   1.408       .  A
C789        H796   1.083       .  S
C790        S792   1.793       .  S
S791        H794   1.406       .  S
S792        H793   1.406       .  S
C797        C798   1.405       .  A
C797        C802   1.411       .  A
C798        C799   1.402       .  A
C798        H807   1.084       .  S
C799        C800   1.410       .  A
C799        S803   1.802       .  S
C800        C801   1.393       .  A
C801        C802   1.386       .  A
C801        H808   1.077       .  S
C802        S804   1.802       .  S
S803        H806   1.404       .  S
S804        H805   1.407       .  S
C809        C810   1.407       .  A
C809        C814   1.401       .  A
C810        C811   1.400       .  A
C810        H819   1.082       .  S
C811        C812   1.407       .  A
C811        S815   1.802       .  S
C812        C813   1.415       .  A
C813        C814   1.395       .  A
C813        H820   1.080       .  S
C814        S816   1.806       .  S
S815        H818   1.405       .  S
S816        H817   1.404       .  S
C821        C822   1.409       .  A
C821        C826   1.411       .  A
C822        C823   1.411       .  A
C822        H831   1.084       .  S
C823        C824   1.413       .  A
C823        S827   1.800       .  S
C824        C825   1.407       .  A
C825        C826   1.392       .  A
C825        H832   1.085       .  S
C826        S828   1.810       .  S
S827        H830   1.405       .  S
S828        H829   1.403       .  S
C833        C834   1.404       .  A
C833        C838   1.409       .  A
C834        C835   1.390       .  A
C834        H843   1.084       .  S
C835        C836   1.404       .  A
C835        S839   1.805       .  S
C836        C837   1.395       .  A
C837        C838   1.379       .  A
C837        H844   1.085       .  S
C838        S840   1.801       .  S
S839        H842   1.405       .  S
S840        H841   1.408       .  S
C845        C846   1.396       .  A
C845        C850   1.410       .  A
C846        C847   1.386       .  A
C846        H855   1.085       .  S
C847        C848   1.406       .  A
C847        S851   1.801       .  S
C848        C849   1.396       .  A
C849        C850   1.386       .  A
C849        H856   1.085   1_455  S
C850        S852   1.807       .  S
S851        H854   1.407       .  S
S852        H853   1.407       .  S
C857        C858   1.409       .  A
C857        C862   1.427       .  A
C858        C859   1.395       .  A
C858        H867   1.083       .  S
C859        C860   1.410       .  A
C859        S863   1.802       .  S
C860        C861   1.396       .  A
C861        C862   1.392       .  A
C861        H868   1.085       .  S
C862        S864   1.796       .  S
S863        H866   1.408       .  S
S864        H865   1.404       .  S
C869        C870   1.402       .  A
C869        C874   1.404       .  A
C870        C871   1.392       .  A
C870        H879   1.084       .  S
C871        C872   1.409       .  A
C871        S875   1.800       .  S
C872        C873   1.406       .  A
C873        C874   1.390       .  A
C873        H880   1.085       .  S
C874        S876   1.802       .  S
S875        H878   1.407       .  S
S876        H877   1.407   1_565  S
O881       Zr893   2.413       .  S
O881        C883   1.285       .  A
O882       Zr919   2.406       .  S
O882        C883   1.281       .  A
C883       C1752   1.462       .  S
O884       Zr896   2.436       .  S
O884        C886   1.287       .  A
O885       Zr920   2.464       .  S
O885        C886   1.293       .  A
C886       C1668   1.491       .  S
O887       Zr896   2.412       .  S
O887        C889   1.282       .  A
O888       Zr919   2.375       .  S
O888        C889   1.278       .  A
C889       C1713   1.446       .  S
O890       Zr893   2.450       .  S
O890        C892   1.288       .  A
O891       Zr920   2.328       .  S
O891        C892   1.268       .  A
C892       C1725   1.433       .  S
Zr893       O894   2.434       .  S
Zr893       O895   2.435       .  S
Zr893       O899   2.372       .  S
Zr893       O900   2.351       .  S
Zr893       O923   2.353       .  S
Zr893       O925   2.364       .  S
O894        H937   0.990       .  S
O895        H936   0.990       .  S
O895        H940   0.990       .  S
Zr896       O897   2.432       .  S
Zr896       O898   2.433       .  S
Zr896       O900   2.370       .  S
Zr896       O899   2.356       .  S
Zr896       O924   2.384       .  S
Zr896       O926   2.351       .  S
O897        H938   0.990       .  S
O897        H941   0.990       .  S
O898        H931   0.990       .  S
O899       Zr919   2.373       .  S
O900       Zr920   2.374       .  S
O900        H927   0.964       .  S
O901       Zr913   2.406       .  S
O901        C903   1.281       .  A
O902       Zr920   2.418       .  S
O902        C903   1.289       .  A
C903       C1740   1.477       .  S
O904       Zr916   2.463       .  S
O904        C906   1.293       .  A
O905       Zr919   2.416       .  S
O905        C906   1.283       .  A
C906       C1701   1.477       .  S
O907       Zr916   2.480       .  S
O907        C909   1.296       .  A
O908       Zr920   2.378       .  S
O908        C909   1.276       .  A
C909       C1689   1.464       .  S
O910       Zr913   2.443       .  S
O910        C912   1.287       .  A
O911       Zr919   2.401       .  S
O911        C912   1.280       .  A
C912       C1680   1.457       .  S
Zr913       O914   2.436       .  S
Zr913       O915   2.436       .  S
Zr913       O921   2.398       .  S
Zr913       O922   2.354       .  S
Zr913       O925   2.366       .  S
Zr913       O923   2.368       .  S
O914        H934   0.990       .  S
O914        H939   0.990       .  S
O915        H935   0.990       .  S
Zr916       O917   2.435       .  S
Zr916       O918   2.424       .  S
Zr916       O922   2.370       .  S
Zr916       O921   2.357       .  S
Zr916       O926   2.362       .  S
Zr916       O924   2.367       .  S
O917        H933   0.990       .  S
O918        H932   0.990       .  S
O918        H942   0.990       .  S
Zr919       O922   2.363       .  S
Zr919       O924   2.388       .  S
Zr919       O925   2.383       .  S
Zr920       O921   2.386       .  S
Zr920       O923   2.378       .  S
Zr920       O926   2.362       .  S
O921        H929   0.965       .  S
O924        H928   0.966       .  S
O925        H930   0.966       .  S
O943       Zr955   2.405       .  S
O943        C945   1.280       .  A
O944       Zr981   2.476       .  S
O944        C945   1.297       .  A
C945       C1632   1.474       .  S
O946       Zr958   2.393       .  S
O946        C948   1.259       .  A
O947       Zr982   2.504       .  S
O947        C948   1.295       .  A
C948       C1593   1.468       .  S
O949       Zr958   2.429       .  S
O949        C951   1.285   1_556  A
O950       Zr981   2.402   1_554  S
O950        C951   1.281       .  A
C951       C1677   1.466       .  S
O952       Zr955   2.461       .  S
O952        C954   1.287       .  A
O953       Zr982   2.382       .  S
O953        C954   1.263       .  A
C954       C1644   1.471       .  S
Zr955       O956   2.435       .  S
Zr955       O957   2.433       .  S
Zr955       O961   2.386       .  S
Zr955       O962   2.359       .  S
Zr955       O985   2.348       .  S
Zr955       O987   2.376       .  S
O956        H999   0.991       .  S
O957        H998   0.990       .  S
O957       H1002   0.990       .  S
Zr958       O959   2.441       .  S
Zr958       O960   2.416       .  S
Zr958       O962   2.390       .  S
Zr958       O961   2.342       .  S
Zr958       O986   2.361       .  S
Zr958       O988   2.395       .  S
O959       H1000   0.990       .  S
O959       H1003   0.990       .  S
O960        H993   0.986       .  S
O961       Zr981   2.375       .  S
O962       Zr982   2.406       .  S
O962        H989   0.960       .  S
O963       Zr975   2.465       .  S
O963        C965   1.294       .  A
O964       Zr982   2.443       .  S
O964        C965   1.291       .  A
C965       C1665   1.500       .  S
O966       Zr978   2.395       .  S
O966        C968   1.267       .  A
O967       Zr981   2.507       .  S
O967        C968   1.292       .  A
C968       C1617   1.490       .  S
O969       Zr978   2.430       .  S
O969        C971   1.282       .  A
O970       Zr982   2.406       .  S
O970        C971   1.283       .  A
C971       C1605   1.453       .  S
O972       Zr975   2.458       .  S
O972        C974   1.294       .  A
O973       Zr981   2.343       .  S
O973        C974   1.273       .  A
C974       C1653   1.459       .  S
Zr975       O976   2.436       .  S
Zr975       O977   2.428       .  S
Zr975       O983   2.374       .  S
Zr975       O984   2.338       .  S
Zr975       O987   2.384       .  S
Zr975       O985   2.353       .  S
O976        H996   0.990       .  S
O976       H1001   0.990       .  S
O977        H997   0.990       .  S
Zr978       O979   2.437       .  S
Zr978       O980   2.438       .  S
Zr978       O984   2.356       .  S
Zr978       O983   2.360       .  S
Zr978       O988   2.361       .  S
Zr978       O986   2.395       .  S
O979        H995   0.990       .  S
O980        H994   0.990       .  S
O980       H1004   0.988       .  S
Zr981       O984   2.380       .  S
Zr981       O986   2.387       .  S
Zr981       O987   2.419       .  S
Zr982       O983   2.374       .  S
Zr982       O985   2.390       .  S
Zr982       O988   2.387       .  S
O983        H991   0.963       .  S
O986        H990   0.966       .  S
O987        H992   0.966       .  S
O1005      C1007   1.266       .  A
O1006      C1007   1.288   1_556  A
C1007      C1545   1.478       .  S
O1008     Zr1020   2.391       .  S
O1008      C1010   1.277       .  A
O1009     Zr1044   2.589       .  S
O1009      C1010   1.321       .  A
C1010      C1569   1.518       .  S
O1011     Zr1020   2.513   1_556  S
O1012      C1013   1.268       .  A
C1013      C1629   1.501       .  S
O1014     Zr1017   2.422       .  S
O1014      C1016   1.281       .  A
O1015     Zr1044   2.469       .  S
O1015      C1016   1.295       .  A
C1016      C1533   1.486       .  S
Zr1017     O1018   2.436       .  S
Zr1017     O1019   2.437       .  S
Zr1017     O1023   2.360       .  S
Zr1017     O1024   2.361       .  S
Zr1017     O1047   2.334       .  S
Zr1017     O1049   2.405       .  S
O1019      H1060   0.985       .  S
O1019      H1064   0.988       .  S
Zr1020     O1021   2.438       .  S
Zr1020     O1022   2.435   1_554  S
Zr1020     O1024   2.407       .  S
Zr1020     O1023   2.313       .  S
Zr1020     O1048   2.371   1_554  S
Zr1020     O1050   2.404   1_554  S
O1021      H1062   0.990       .  S
O1021      H1065   0.990       .  S
O1022      H1055   0.990       .  S
O1023     Zr1043   2.375   1_554  S
O1024     Zr1044   2.396       .  S
O1024      H1051   0.965       .  S
O1025     Zr1037   2.346       .  S
O1025      C1027   1.266   1_556  A
O1026     Zr1044   2.600       .  S
O1026      C1027   1.321       .  A
C1027      C1581   1.509   1_565  S
O1028     Zr1040   2.442       .  S
O1028      C1030   1.289       .  A
O1029     Zr1043   2.429       .  S
O1029      C1030   1.290       .  A
C1030      C1524   1.482       .  S
O1031     Zr1040   2.530       .  S
O1031      C1033   1.306       .  A
O1032     Zr1044   2.385       .  S
O1032      C1033   1.281   1_554  A
C1033      C1620   1.500       .  S
O1034     Zr1037   2.496       .  S
O1034      C1036   1.296       .  A
O1035     Zr1043   2.390       .  S
O1035      C1036   1.280       .  A
C1036      C1560   1.484   1_565  S
Zr1037     O1038   2.436       .  S
Zr1037     O1039   2.438   1_566  S
Zr1037     O1045   2.400       .  S
Zr1037     O1046   2.318       .  S
Zr1037     O1049   2.338   1_556  S
Zr1037     O1047   2.417   1_556  S
O1038      H1058   0.990       .  S
O1038      H1063   0.990   1_565  S
O1039      H1059   0.988       .  S
Zr1040     O1041   2.434       .  S
Zr1040     O1042   2.434       .  S
Zr1040     O1046   2.394       .  S
Zr1040     O1045   2.347       .  S
Zr1040     O1050   2.347       .  S
Zr1040     O1048   2.407       .  S
O1041      H1057   0.990       .  S
O1042      H1056   0.990       .  S
O1042      H1066   0.990       .  S
Zr1043     O1046   2.375       .  S
Zr1043     O1048   2.405       .  S
Zr1043     O1049   2.382   1_556  S
Zr1044     O1045   2.415   1_554  S
Zr1044     O1047   2.380       .  S
Zr1044     O1050   2.393   1_554  S
O1045      H1053   0.964       .  S
O1048      H1052   0.966       .  S
O1049      H1054   0.963       .  S
O1067      C1069   1.266       .  A
O1068      C1069   1.295       .  A
C1069      C1476   1.482       .  S
O1070     Zr1082   2.357       .  S
O1070      C1072   1.271       .  A
O1071     Zr1106   2.601       .  S
O1071      C1072   1.323       .  A
C1072      C1497   1.518       .  S
O1073     Zr1082   2.423       .  S
O1074      C1075   1.278       .  A
C1075      C1728   1.432       .  S
O1076     Zr1079   2.424       .  S
O1076      C1078   1.284       .  A
O1077     Zr1106   2.442       .  S
O1077      C1078   1.290       .  A
C1078      C1521   1.484       .  S
Zr1079     O1080   2.437       .  S
Zr1079     O1081   2.448       .  S
Zr1079     O1085   2.360       .  S
Zr1079     O1086   2.376       .  S
Zr1079     O1109   2.350       .  S
Zr1079     O1111   2.409       .  S
O1081      H1122   0.987       .  S
O1081      H1126   0.988       .  S
Zr1082     O1083   2.435       .  S
Zr1082     O1084   2.434       .  S
Zr1082     O1086   2.388       .  S
Zr1082     O1085   2.305       .  S
Zr1082     O1110   2.365       .  S
Zr1082     O1112   2.361       .  S
O1083      H1124   0.990       .  S
O1083      H1127   0.990       .  S
O1084      H1117   0.990       .  S
O1085     Zr1105   2.361       .  S
O1086     Zr1106   2.387       .  S
O1086      H1113   0.965       .  S
O1087     Zr1099   2.374       .  S
O1087      C1089   1.263       .  A
O1088     Zr1106   2.581       .  S
O1088      C1089   1.313       .  A
C1089      C1512   1.519   1_565  S
O1090     Zr1102   2.395       .  S
O1090      C1092   1.280       .  A
O1091     Zr1105   2.486       .  S
O1091      C1092   1.299       .  A
C1092      C1536   1.485       .  S
O1093     Zr1102   2.439       .  S
O1093      C1095   1.287       .  A
O1094     Zr1106   2.355       .  S
O1094      C1095   1.278       .  A
C1095      C1716   1.431       .  S
O1096     Zr1099   2.469       .  S
O1096      C1098   1.290       .  A
O1097     Zr1105   2.406       .  S
O1097      C1098   1.284       .  A
C1098      C1485   1.484       .  S
Zr1099     O1100   2.440       .  S
Zr1099     O1101   2.434   1_565  S
Zr1099     O1107   2.398       .  S
Zr1099     O1108   2.339       .  S
Zr1099     O1111   2.359       .  S
Zr1099     O1109   2.409       .  S
O1100      H1120   0.990       .  S
O1100      H1125   0.990   1_565  S
O1101      H1121   0.989       .  S
Zr1102     O1103   2.434       .  S
Zr1102     O1104   2.434       .  S
Zr1102     O1108   2.373       .  S
Zr1102     O1107   2.345       .  S
Zr1102     O1112   2.339       .  S
Zr1102     O1110   2.372       .  S
O1103      H1119   0.990       .  S
O1104      H1118   0.990       .  S
O1104      H1128   0.990       .  S
Zr1105     O1108   2.372       .  S
Zr1105     O1110   2.394       .  S
Zr1105     O1111   2.394       .  S
Zr1106     O1107   2.416       .  S
Zr1106     O1109   2.399       .  S
Zr1106     O1112   2.387       .  S
O1107      H1115   0.964       .  S
O1110      H1114   0.966       .  S
O1111      H1116   0.963       .  S
O1129     Zr1141   2.516       .  S
O1129      C1131   1.299       .  A
O1130     Zr1167   2.328       .  S
O1130      C1131   1.270       .  A
C1131      C1704   1.480       .  S
O1132     Zr1144   2.423   1_556  S
O1132      C1134   1.282       .  A
O1133     Zr1168   2.431   1_556  S
O1133      C1134   1.288       .  A
C1134      C1425   1.484       .  S
O1135     Zr1144   2.386       .  S
O1135      C1137   1.261       .  A
O1136     Zr1167   2.511       .  S
O1136      C1137   1.297       .  A
C1137      C1596   1.479   1_554  S
O1138     Zr1141   2.349       .  S
O1138      C1140   1.261       .  A
O1139     Zr1168   2.617       .  S
O1139      C1140   1.321       .  A
C1140      C1572   1.518       .  S
Zr1141     O1142   2.442       .  S
Zr1141     O1143   2.435       .  S
Zr1141     O1147   2.337       .  S
Zr1141     O1148   2.444       .  S
Zr1141     O1171   2.399       .  S
Zr1141     O1173   2.333       .  S
O1142      H1185   0.990       .  S
O1143      H1184   0.990       .  S
O1143      H1188   0.990       .  S
Zr1144     O1145   2.433   1_554  S
Zr1144     O1146   2.434   1_554  S
Zr1144     O1148   2.346       .  S
Zr1144     O1147   2.403       .  S
Zr1144     O1172   2.366       .  S
Zr1144     O1174   2.342       .  S
O1145      H1186   0.990       .  S
O1145      H1189   0.990       .  S
O1146      H1179   0.990       .  S
O1147     Zr1167   2.352       .  S
O1148     Zr1168   2.389       .  S
O1148      H1175   0.965   1_554  S
O1149     Zr1161   2.543       .  S
O1149      C1151   1.308       .  A
O1150     Zr1168   2.371       .  S
O1150      C1151   1.275       .  A
C1151      C1449   1.517       .  S
O1152     Zr1164   2.560       .  S
O1152      C1154   1.310       .  A
O1153     Zr1167   2.334       .  S
O1153      C1154   1.269       .  A
C1154      C1461   1.483       .  S
O1155     Zr1164   2.371       .  S
O1155      C1157   1.275       .  A
O1156     Zr1168   2.591       .  S
O1156      C1157   1.322       .  A
C1157      C1584   1.510       .  S
O1158     Zr1161   2.430       .  S
O1158      C1160   1.288       .  A
O1159     Zr1167   2.446       .  S
O1159      C1160   1.292       .  A
C1160      C1437   1.471       .  S
Zr1161     O1162   2.437       .  S
Zr1161     O1163   2.434       .  S
Zr1161     O1169   2.339       .  S
Zr1161     O1170   2.404       .  S
Zr1161     O1173   2.399       .  S
Zr1161     O1171   2.348       .  S
O1162      H1182   0.990       .  S
O1162      H1187   0.990       .  S
O1163      H1183   0.990       .  S
Zr1164     O1165   2.434       .  S
Zr1164     O1166   2.437       .  S
Zr1164     O1170   2.324       .  S
Zr1164     O1169   2.431       .  S
Zr1164     O1174   2.415       .  S
Zr1164     O1172   2.315       .  S
O1165      H1181   0.990       .  S
O1166      H1180   0.990       .  S
O1166      H1190   0.990       .  S
Zr1167     O1170   2.378       .  S
Zr1167     O1172   2.374       .  S
Zr1167     O1173   2.385       .  S
Zr1168     O1169   2.407       .  S
Zr1168     O1171   2.397       .  S
Zr1168     O1174   2.406       .  S
O1169      H1177   0.965       .  S
O1172      H1176   0.963       .  S
O1173      H1178   0.966       .  S
O1191     Zr1203   2.436       .  S
O1191      C1193   1.284       .  A
O1192     Zr1229   2.379       .  S
O1192      C1193   1.277       .  A
C1193      C1608   1.449       .  S
O1194     Zr1206   2.436       .  S
O1194      C1196   1.286       .  A
O1195     Zr1230   2.421       .  S
O1195      C1196   1.287       .  A
C1196      C1440   1.479       .  S
O1197     Zr1206   2.365       .  S
O1197      C1199   1.276       .  A
O1198     Zr1229   2.476       .  S
O1198      C1199   1.295       .  A
C1199      C1692   1.470       .  S
O1200     Zr1203   2.328       .  S
O1200      C1202   1.266       .  A
O1201     Zr1230   2.624       .  S
O1201      C1202   1.328       .  A
C1202      C1500   1.515       .  S
Zr1203     O1204   2.435       .  S
Zr1203     O1205   2.436       .  S
Zr1203     O1209   2.340       .  S
Zr1203     O1210   2.393       .  S
Zr1203     O1233   2.389       .  S
Zr1203     O1235   2.334       .  S
O1204      H1247   0.990       .  S
O1205      H1246   0.990       .  S
O1205      H1250   0.990       .  S
Zr1206     O1207   2.431       .  S
Zr1206     O1208   2.435       .  S
Zr1206     O1210   2.327       .  S
Zr1206     O1209   2.384       .  S
Zr1206     O1234   2.359       .  S
Zr1206     O1236   2.353       .  S
O1207      H1248   0.989       .  S
O1207      H1251   0.989       .  S
O1208      H1241   0.990       .  S
O1209     Zr1229   2.374       .  S
O1210     Zr1230   2.386       .  S
O1210      H1237   0.965       .  S
O1211     Zr1223   2.532       .  S
O1211      C1213   1.305       .  A
O1212     Zr1230   2.388       .  S
O1212      C1213   1.280       .  A
C1213      C1401   1.497       .  S
O1214     Zr1226   2.542       .  S
O1214      C1216   1.306       .  A
O1215     Zr1229   2.390       .  S
O1215      C1216   1.279       .  A
C1216      C1416   1.504       .  S
O1217     Zr1226   2.379       .  S
O1217      C1219   1.276       .  A
O1218     Zr1230   2.589       .  S
O1218      C1219   1.322       .  A
C1219      C1509   1.506       .  S
O1220     Zr1223   2.425       .  S
O1220      C1222   1.286       .  A
O1221     Zr1229   2.452       .  S
O1221      C1222   1.294       .  A
C1222      C1428   1.480       .  S
Zr1223     O1224   2.437       .  S
Zr1223     O1225   2.434       .  S
Zr1223     O1231   2.325       .  S
Zr1223     O1232   2.423       .  S
Zr1223     O1235   2.384       .  S
Zr1223     O1233   2.356       .  S
O1224      H1244   0.990       .  S
O1224      H1249   0.990       .  S
O1225      H1245   0.990       .  S
Zr1226     O1227   2.435       .  S
Zr1226     O1228   2.436       .  S
Zr1226     O1232   2.353       .  S
Zr1226     O1231   2.423       .  S
Zr1226     O1236   2.412       .  S
Zr1226     O1234   2.320       .  S
O1227      H1243   0.990       .  S
O1228      H1242   0.990       .  S
O1228      H1252   0.990       .  S
Zr1229     O1232   2.383       .  S
Zr1229     O1234   2.374       .  S
Zr1229     O1235   2.389       .  S
Zr1230     O1231   2.410       .  S
Zr1230     O1233   2.393       .  S
Zr1230     O1236   2.407       .  S
O1231      H1239   0.963       .  S
O1234      H1238   0.964       .  S
O1235      H1240   0.965       .  S
O1253     Zr1265   2.412       .  S
O1253      C1255   1.268   1_545  A
O1254     Zr1291   2.478   1_565  S
O1254      C1255   1.287       .  A
C1255      C1548   1.479       .  S
O1256     Zr1268   2.360       .  S
O1256      C1258   1.273       .  A
O1257     Zr1292   2.538       .  S
O1257      C1258   1.309       .  A
C1258      C1464   1.498       .  S
O1259     Zr1268   2.397       .  S
O1259      C1261   1.278       .  A
O1260     Zr1291   2.423       .  S
O1260      C1261   1.288       .  A
C1261      C1749   1.453   1_545  S
O1262     Zr1265   2.401       .  S
O1262      C1264   1.280       .  A
O1263     Zr1292   2.476       .  S
O1263      C1264   1.297       .  A
C1264      C1392   1.474       .  S
Zr1265     O1266   2.436       .  S
Zr1265     O1267   2.440       .  S
Zr1265     O1271   2.377       .  S
Zr1265     O1272   2.358       .  S
Zr1265     O1295   2.356       .  S
Zr1265     O1297   2.383       .  S
O1266      H1309   0.990       .  S
O1267      H1308   0.986       .  S
O1267      H1312   0.988       .  S
Zr1268     O1269   2.437       .  S
Zr1268     O1270   2.436       .  S
Zr1268     O1272   2.362       .  S
Zr1268     O1271   2.344       .  S
Zr1268     O1296   2.354       .  S
Zr1268     O1298   2.378       .  S
O1269      H1310   0.989       .  S
O1269      H1313   0.990       .  S
O1270      H1303   0.990       .  S
O1271     Zr1291   2.381       .  S
O1272     Zr1292   2.383       .  S
O1272      H1299   0.960       .  S
O1273     Zr1285   2.376       .  S
O1273      C1275   1.275       .  A
O1274     Zr1292   2.524       .  S
O1274      C1275   1.307       .  A
O1276     Zr1288   2.421       .  S
O1276      C1278   1.283       .  A
O1277     Zr1291   2.456       .  S
O1277      C1278   1.292       .  A
C1278      C1377   1.488       .  S
O1279     Zr1288   2.434       .  S
O1279      C1281   1.285       .  A
O1280     Zr1292   2.437       .  S
O1280      C1281   1.293       .  A
C1281      C1737   1.487       .  S
O1282     Zr1285   2.447       .  S
O1282      C1284   1.287       .  A
O1283     Zr1291   2.409       .  S
O1283      C1284   1.287       .  A
Zr1285     O1286   2.440       .  S
Zr1285     O1293   2.354       .  S
Zr1285     O1294   2.343       .  S
Zr1285     O1297   2.334       .  S
Zr1285     O1295   2.397       .  S
O1286      H1306   0.990       .  S
O1287      H1307   0.990       .  S
Zr1288     O1289   2.434       .  S
Zr1288     O1290   2.433       .  S
Zr1288     O1294   2.368       .  S
Zr1288     O1293   2.375       .  S
Zr1288     O1298   2.356       .  S
Zr1288     O1296   2.362       .  S
O1289      H1305   0.991       .  S
O1290      H1304   0.990       .  S
O1290      H1314   0.990       .  S
Zr1291     O1294   2.376       .  S
Zr1291     O1296   2.395       .  S
Zr1291     O1297   2.388       .  S
Zr1292     O1293   2.411       .  S
Zr1292     O1295   2.400       .  S
Zr1292     O1298   2.409       .  S
O1293      H1301   0.962       .  S
O1296      H1300   0.966       .  S
O1297      H1302   0.958       .  S
O1315     Zr1327   2.430   1_565  S
O1315      C1317   1.269       .  A
O1316     Zr1353   2.487   1_565  S
O1316      C1317   1.284       .  A
C1317      C1473   1.492       .  S
O1318     Zr1330   2.400       .  S
O1318      C1320   1.271       .  A
O1319     Zr1354   2.563       .  S
O1319      C1320   1.309       .  A
C1320      C1413   1.537       .  S
O1321     Zr1330   2.401       .  S
O1321      C1323   1.278       .  A
O1322     Zr1353   2.409       .  S
O1322      C1323   1.289       .  A
C1323      C1656   1.460       .  S
O1324     Zr1327   2.411       .  S
O1324      C1326   1.283       .  A
O1325     Zr1354   2.457       .  S
O1325      C1326   1.294       .  A
C1326      C1380   1.490       .  S
Zr1327     O1328   2.443   1_545  S
Zr1327     O1329   2.471       .  S
Zr1327     O1333   2.377       .  S
Zr1327     O1334   2.340       .  S
Zr1327     O1357   2.334       .  S
Zr1327     O1359   2.396       .  S
O1328      H1371   0.990       .  S
O1329      H1374   0.990       .  S
Zr1330     O1331   2.440       .  S
Zr1330     O1332   2.438       .  S
Zr1330     O1334   2.375       .  S
Zr1330     O1333   2.354       .  S
Zr1330     O1358   2.360       .  S
Zr1330     O1360   2.368       .  S
O1331      H1372   0.989       .  S
O1331      H1375   0.988       .  S
O1332      H1365   0.989       .  S
O1333     Zr1353   2.390       .  S
O1334     Zr1354   2.376       .  S
O1334      H1361   0.964       .  S
O1335     Zr1347   2.380       .  S
O1335      C1337   1.277       .  A
O1336     Zr1354   2.521       .  S
O1336      C1337   1.307       .  A
O1338     Zr1350   2.411       .  S
O1338      C1340   1.282       .  A
O1339     Zr1353   2.453       .  S
O1339      C1340   1.294       .  A
C1340      C1389   1.473       .  S
O1341     Zr1350   2.418       .  S
O1341      C1343   1.284       .  A
O1342     Zr1354   2.392       .  S
O1342      C1343   1.285       .  A
C1343      C1641   1.448       .  S
O1344      C1346   1.295       .  A
O1345     Zr1353   2.411       .  S
C1346      C1557   1.497   1_455  S
Zr1347     O1348   2.439       .  S
Zr1347     O1355   2.380       .  S
Zr1347     O1356   2.331       .  S
Zr1347     O1359   2.355       .  S
Zr1347     O1357   2.402       .  S
O1348      H1368   0.990       .  S
O1349      H1369   0.990       .  S
Zr1350     O1351   2.433       .  S
Zr1350     O1352   2.430       .  S
Zr1350     O1356   2.369       .  S
Zr1350     O1355   2.355       .  S
Zr1350     O1360   2.359       .  S
Zr1350     O1358   2.353       .  S
O1351      H1367   0.990       .  S
O1352      H1366   0.990       .  S
O1352      H1376   0.989       .  S
Zr1353     O1356   2.377       .  S
Zr1353     O1358   2.392       .  S
Zr1353     O1359   2.404       .  S
Zr1354     O1355   2.422       .  S
Zr1354     O1357   2.377       .  S
Zr1354     O1360   2.401       .  S
O1355      H1363   0.965       .  S
O1358      H1362   0.966       .  S
O1359      H1364   0.966       .  S
C1377      C1378   1.411       .  A
C1377      C1382   1.409       .  A
C1378      C1379   1.398       .  A
C1378      H1387   1.084       .  S
C1379      C1380   1.412       .  A
C1379      S1383   1.803       .  S
C1380      C1381   1.413       .  A
C1381      C1382   1.401       .  A
C1381      H1388   1.084       .  S
C1382      S1384   1.797       .  S
S1383      H1386   1.408       .  S
S1384      H1385   1.406       .  S
C1389      C1390   1.396       .  A
C1389      C1394   1.419       .  A
C1390      C1391   1.394   1_556  A
C1390      H1399   1.084       .  S
C1391      C1392   1.420       .  A
C1391      S1395   1.804       .  S
C1392      C1393   1.399   1_554  A
C1393      C1394   1.403       .  A
C1393      H1400   1.084   1_556  S
C1394      S1396   1.804       .  S
S1395      H1398   1.402       .  S
S1396      H1397   1.407       .  S
C1401      C1402   1.406       .  A
C1401      C1406   1.418       .  A
C1402      C1403   1.417       .  A
C1402      H1411   1.083       .  S
C1403      C1404   1.413       .  A
C1403      S1407   1.797       .  S
C1404      C1405   1.404       .  A
C1405      C1406   1.404       .  A
C1405      H1412   1.085       .  S
C1406      S1408   1.800       .  S
S1408      H1409   1.404       .  S
C1413      C1414   1.411       .  A
C1413      C1418   1.441       .  A
C1414      C1415   1.424       .  A
C1414      H1423   1.083       .  S
C1415      C1416   1.421       .  A
C1415      S1419   1.794       .  S
C1416      C1417   1.391       .  A
C1417      C1418   1.406       .  A
C1417      H1424   1.084       .  S
C1418      S1420   1.803       .  S
S1419      H1422   1.404       .  S
S1420      H1421   1.408       .  S
C1425      C1426   1.402       .  A
C1425      C1430   1.419       .  A
C1426      C1427   1.398       .  A
C1426      H1435   1.084       .  S
C1427      C1428   1.420       .  A
C1427      S1431   1.805       .  S
C1428      C1429   1.401       .  A
C1429      C1430   1.399       .  A
C1429      H1436   1.084       .  S
C1430      S1432   1.804       .  S
S1431      H1434   1.403       .  S
S1432      H1433   1.408       .  S
C1437      C1438   1.398       .  A
C1437      C1442   1.414       .  A
C1438      C1439   1.398       .  A
C1438      H1447   1.084       .  S
C1439      C1440   1.418       .  A
C1439      S1443   1.799       .  S
C1440      C1441   1.403       .  A
C1441      C1442   1.397       .  A
C1441      H1448   1.084       .  S
C1442      S1444   1.804       .  S
S1443      H1446   1.401       .  S
S1444      H1445   1.407       .  S
C1449      C1450   1.406       .  A
C1449      C1454   1.435       .  A
C1450      C1451   1.412       .  A
C1450      H1459   1.083       .  S
C1451      C1452   1.421       .  A
C1451      S1455   1.802       .  S
C1452      C1453   1.397       .  A
C1453      C1454   1.407       .  A
C1453      H1460   1.085       .  S
C1454      S1456   1.804       .  S
S1456      H1457   1.406       .  S
C1461      C1462   1.414       .  A
C1461      C1466   1.409       .  A
C1462      C1463   1.415       .  A
C1462      H1471   1.084       .  S
C1463      C1464   1.414       .  A
C1463      S1467   1.799       .  S
C1464      C1465   1.415       .  A
C1465      C1466   1.403       .  A
C1465      H1472   1.085       .  S
C1466      S1468   1.806       .  S
S1467      H1470   1.405       .  S
S1468      H1469   1.406       .  S
C1473      C1474   1.387       .  A
C1473      C1478   1.412       .  A
C1475      S1479   1.785       .  S
C1476      C1477   1.422       .  A
C1477      C1478   1.422       .  A
C1477      H1484   1.083       .  S
C1478      S1480   1.798       .  S
S1479      H1482   1.407       .  S
S1480      H1481   1.403       .  S
C1485      C1486   1.409   1_565  A
C1486      C1487   1.412       .  A
C1486      H1495   1.083       .  S
C1487      C1488   1.417       .  A
C1487      S1491   1.802       .  S
C1489      C1490   1.383       .  A
C1489      H1496   1.082       .  S
C1490      S1492   1.787       .  S
S1491      H1494   1.406       .  S
S1492      H1493   1.407       .  S
C1497      C1498   1.412       .  A
C1497      C1502   1.424       .  A
C1498      C1499   1.428       .  A
C1498      H1507   1.083       .  S
C1499      C1500   1.426       .  A
C1499      S1503   1.797       .  S
C1500      C1501   1.413       .  A
C1501      C1502   1.417       .  A
C1501      H1508   1.084       .  S
C1502      S1504   1.805       .  S
S1503      H1506   1.406       .  S
S1504      H1505   1.407       .  S
C1509      C1510   1.418       .  A
C1509      C1514   1.413       .  A
C1510      C1511   1.421       .  A
C1510      H1519   1.083       .  S
C1511      C1512   1.417       .  A
C1511      S1515   1.799       .  S
C1512      C1513   1.418       .  A
C1513      C1514   1.413       .  A
C1513      H1520   1.084       .  S
C1514      S1516   1.803       .  S
S1515      H1518   1.404   1_545  S
S1516      H1517   1.407       .  S
C1521      C1522   1.409       .  A
C1521      C1526   1.411       .  A
C1522      C1523   1.392       .  A
C1522      H1531   1.084       .  S
C1523      C1524   1.411       .  A
C1524      C1525   1.411       .  A
C1525      C1526   1.405       .  A
C1525      H1532   1.084       .  S
C1526      S1528   1.801       .  S
S1527      H1530   1.407       .  S
S1528      H1529   1.405       .  S
C1533      C1534   1.399       .  A
C1533      C1538   1.418       .  A
C1534      C1535   1.406       .  A
C1534      H1543   1.083       .  S
C1535      C1536   1.420       .  A
C1535      S1539   1.809       .  S
C1536      C1537   1.400       .  A
C1537      C1538   1.407       .  A
C1537      H1544   1.084       .  S
C1538      S1540   1.804       .  S
S1539      H1542   1.407       .  S
S1540      H1541   1.407       .  S
C1545      C1546   1.397       .  A
C1545      C1550   1.414       .  A
C1546      C1547   1.397       .  A
C1546      H1555   1.073       .  S
C1547      C1548   1.402       .  A
C1547      S1551   1.792       .  S
C1548      C1549   1.407       .  A
C1549      C1550   1.414       .  A
C1549      H1556   1.083       .  S
C1550      S1552   1.797       .  S
S1551      H1554   1.406       .  S
S1552      H1553   1.407       .  S
C1557      C1562   1.418       .  A
C1558      H1567   1.084       .  S
C1559      C1560   1.412       .  A
C1560      C1561   1.406       .  A
C1561      C1562   1.411       .  A
C1561      H1568   1.084   1_545  S
C1562      S1564   1.802       .  S
S1563      H1566   1.406       .  S
S1564      H1565   1.407       .  S
C1569      C1570   1.409       .  A
C1569      C1574   1.424       .  A
C1570      C1571   1.418   1_554  A
C1570      H1579   1.084   1_554  S
C1571      C1572   1.425   1_556  A
C1571      S1575   1.805       .  S
C1572      C1573   1.414       .  A
C1573      C1574   1.427       .  A
C1573      H1580   1.083       .  S
C1574      S1576   1.802       .  S
S1575      H1578   1.407       .  S
S1576      H1577   1.406       .  S
C1581      C1582   1.413       .  A
C1581      C1586   1.421       .  A
C1582      C1583   1.426       .  A
C1582      H1591   1.084       .  S
C1583      C1584   1.425       .  A
C1583      S1587   1.804       .  S
C1584      C1585   1.410       .  A
C1585      C1586   1.411       .  A
C1585      H1592   1.084   1_554  S
C1586      S1588   1.806   1_544  S
S1587      H1590   1.402       .  S
S1588      H1589   1.407   1_556  S
C1593      C1594   1.399       .  A
C1593      C1598   1.412       .  A
C1594      C1595   1.401       .  A
C1594      H1603   1.083       .  S
C1595      C1596   1.410       .  A
C1595      S1599   1.795   1_556  S
C1596      C1597   1.408       .  A
C1597      C1598   1.409       .  A
C1597      H1604   1.083       .  S
C1598      S1600   1.803       .  S
S1599      H1602   1.407       .  S
S1600      H1601   1.407       .  S
C1605      C1606   1.396       .  A
C1605      C1610   1.411       .  A
C1606      C1607   1.391       .  A
C1606      H1615   1.084       .  S
C1607      C1608   1.410       .  A
C1607      S1611   1.800       .  S
C1608      C1609   1.395       .  A
C1609      C1610   1.391       .  A
C1609      H1616   1.084       .  S
C1610      S1612   1.797       .  S
S1611      H1614   1.406       .  S
S1612      H1613   1.405       .  S
C1617      C1618   1.400       .  A
C1617      C1622   1.421       .  A
C1618      C1619   1.408       .  A
C1618      H1627   1.084   1_556  S
C1619      C1620   1.423       .  A
C1619      S1623   1.799   1_556  S
C1620      C1621   1.402       .  A
C1621      C1622   1.408       .  A
C1621      H1628   1.083       .  S
C1622      S1624   1.809       .  S
S1623      H1626   1.408       .  S
S1624      H1625   1.406       .  S
C1629      C1630   1.413       .  A
C1629      C1634   1.414       .  A
C1630      C1631   1.392       .  A
C1631      C1632   1.407       .  A
C1631      S1635   1.807       .  S
C1632      C1633   1.411       .  A
C1633      C1634   1.417       .  A
C1633      H1640   1.083   1_556  S
C1634      S1636   1.803   1_556  S
S1635      H1638   1.397       .  S
S1636      H1637   1.407       .  S
C1641      C1642   1.390       .  A
C1641      C1646   1.412       .  A
C1642      C1643   1.384       .  A
C1642      H1651   1.084       .  S
C1643      C1644   1.426       .  A
C1643      S1647   1.816       .  S
C1644      C1645   1.403       .  A
C1645      C1646   1.394       .  A
C1645      H1652   1.084       .  S
C1646      S1648   1.807       .  S
S1647      H1650   1.407       .  S
S1648      H1649   1.401       .  S
C1653      C1654   1.401       .  A
C1653      C1658   1.419       .  A
C1654      C1655   1.392       .  A
C1654      H1663   1.083       .  S
C1655      C1656   1.408   1_565  A
C1655      S1659   1.804   1_565  S
C1656      C1657   1.397   1_545  A
C1657      C1658   1.386       .  A
C1657      H1664   1.085   1_565  S
C1658      S1660   1.801       .  S
S1659      H1662   1.407   1_545  S
S1660      H1661   1.403       .  S
C1665      C1666   1.404       .  A
C1665      C1670   1.420       .  A
C1666      C1667   1.397       .  A
C1666      H1675   1.084       .  S
C1667      C1668   1.417       .  A
C1667      S1671   1.801       .  S
C1668      C1669   1.403       .  A
C1669      C1670   1.408       .  A
C1669      H1676   1.083       .  S
C1670      S1672   1.793       .  S
S1671      H1674   1.406       .  S
S1672      H1673   1.406       .  S
C1677      C1678   1.405       .  A
C1677      C1682   1.411       .  A
C1678      C1679   1.402       .  A
C1678      H1687   1.084       .  S
C1679      C1680   1.410       .  A
C1679      S1683   1.802       .  S
C1680      C1681   1.393       .  A
C1681      C1682   1.386       .  A
C1681      H1688   1.077       .  S
C1682      S1684   1.802       .  S
S1683      H1686   1.404       .  S
S1684      H1685   1.407       .  S
C1689      C1690   1.407       .  A
C1689      C1694   1.401       .  A
C1690      C1691   1.400       .  A
C1690      H1699   1.082       .  S
C1691      C1692   1.407       .  A
C1691      S1695   1.802       .  S
C1692      C1693   1.415       .  A
C1693      C1694   1.395       .  A
C1693      H1700   1.080       .  S
C1694      S1696   1.806       .  S
S1695      H1698   1.405       .  S
S1696      H1697   1.404       .  S
C1701      C1702   1.409       .  A
C1701      C1706   1.411       .  A
C1702      C1703   1.411       .  A
C1702      H1711   1.084       .  S
C1703      C1704   1.413       .  A
C1703      S1707   1.800       .  S
C1704      C1705   1.407       .  A
C1705      C1706   1.392       .  A
C1705      H1712   1.085       .  S
C1706      S1708   1.810       .  S
S1707      H1710   1.405       .  S
S1708      H1709   1.403       .  S
C1713      C1714   1.404       .  A
C1713      C1718   1.409       .  A
C1714      C1715   1.390       .  A
C1714      H1723   1.084       .  S
C1715      C1716   1.404       .  A
C1715      S1719   1.805       .  S
C1716      C1717   1.395       .  A
C1717      C1718   1.379       .  A
C1717      H1724   1.085       .  S
C1718      S1720   1.801       .  S
S1719      H1722   1.405       .  S
S1720      H1721   1.408       .  S
C1725      C1726   1.396       .  A
C1725      C1730   1.410       .  A
C1726      C1727   1.386       .  A
C1726      H1735   1.085       .  S
C1727      C1728   1.406       .  A
C1727      S1731   1.801       .  S
C1728      C1729   1.396       .  A
C1729      C1730   1.386       .  A
C1729      H1736   1.085       .  S
C1730      S1732   1.807       .  S
S1731      H1734   1.407       .  S
S1732      H1733   1.407       .  S
C1737      C1738   1.409       .  A
C1737      C1742   1.427       .  A
C1738      C1739   1.395       .  A
C1738      H1747   1.083       .  S
C1739      C1740   1.410       .  A
C1739      S1743   1.802       .  S
C1740      C1741   1.396       .  A
C1741      C1742   1.392       .  A
C1741      H1748   1.085       .  S
C1742      S1744   1.796       .  S
S1743      H1746   1.408       .  S
S1744      H1745   1.404       .  S
C1749      C1750   1.402       .  A
C1749      C1754   1.404       .  A
C1750      C1751   1.392       .  A
C1750      H1759   1.084       .  S
C1751      C1752   1.409       .  A
C1751      S1755   1.800       .  S
C1752      C1753   1.406       .  A
C1753      C1754   1.390       .  A
C1753      H1760   1.085       .  S
C1754      S1756   1.802       .  S
S1755      H1758   1.407       .  S
S1756      H1757   1.407   1_565  S
