geometry optimzed in LAMMPS
_audit_creation_date              2020-11-30 
_audit_creation_method            'lammps2cif' 
_symmetry_space_group_name_H-M    'P1' 
_symmetry_Int_Tables_number       1 
_symmetry_cell_setting            triclinic 
loop_ 
_symmetry_equiv_pos_as_xyz 
  x,y,z 
_cell_length_a                    27.83412826 
_cell_length_b                    27.798767529107337 
_cell_length_c                    27.765676426314023 
_cell_angle_alpha                 89.96803828454942 
_cell_angle_beta                  90.04101968689527 
_cell_angle_gamma                 90.04903201256315 
loop_ 
_atom_site_label 
_atom_site_type_symbol 
_atom_site_fract_x 
_atom_site_fract_y 
_atom_site_fract_z 
_atom_site_charge 
O1          O  0.49113653  0.37413915  0.07559930    -0.73200
O2          O  0.49115860  0.43390386  0.13210713    -0.52100
C3          C  0.49262069  0.38957587  0.11931571     0.80500
O4          O  0.62320797  0.49635682  0.91126354    -0.57800
O5          O  0.56335748  0.50068096  0.85504380    -0.50800
C6          C  0.60765844  0.49632409  0.86758119     0.72600
O7          O  0.62504690  0.49684523  0.07381253    -0.72300
O8          O  0.56621613  0.50207163  0.13092628    -0.52900
C9          C  0.61028124  0.49757708  0.11774509     0.78600
O10         O  0.48793752  0.37293507  0.91269597    -0.57500
O11         O  0.48935796  0.43238957  0.85580576    -0.50600
C12         C  0.49012386  0.38804150  0.86884716     0.75200
Zr13       Zr  0.48294750  0.40698740  0.99413304     2.54700
O14         O  0.52901409  0.33259417  0.99329176    -0.78100
O15         O  0.40819489  0.36152024  0.99642675    -0.91500
Zr16       Zr  0.59051823  0.50192156  0.99292581     2.64700
O17         O  0.64945790  0.43710077  0.99405243    -0.96400
O18         O  0.65244870  0.56374247  0.99153291    -0.78500
O19         O  0.53795922  0.45378986  0.03992506    -0.81800
O20         O  0.53725245  0.45340518  0.94746707    -2.16600
O21         O  0.35465476  0.50177183  0.91525790    -0.65200
O22         O  0.41313584  0.50338084  0.85748828    -0.49800
C23         C  0.36916260  0.49986513  0.87129884     0.73500
O24         O  0.49846104  0.64230744  0.07450909    -0.58100
O25         O  0.49526053  0.58305566  0.13153717    -0.50100
C26         C  0.49828785  0.62731195  0.11840678     0.75300
O27         O  0.50344264  0.64061373  0.91147447    -0.69500
O28         O  0.49516826  0.58136865  0.85501397    -0.48200
C29         C  0.50170495  0.62537202  0.86771001     0.76700
O30         O  0.35663621  0.51055163  0.07730773    -0.64900
O31         O  0.41695304  0.50820942  0.13314780    -0.52100
C32         C  0.37239923  0.50830876  0.12090907     0.75100
Zr33       Zr  0.38917064  0.51422335  0.99523408     2.77500
O34         O  0.34218352  0.58791325  0.99080164    -0.95600
O35         O  0.31528528  0.46750038  0.99978065    -0.76400
Zr36       Zr  0.49520499  0.60842254  0.99319706     2.70100
O37         O  0.43185708  0.66863648  0.98999908    -0.77700
O38         O  0.55688906  0.67053427  0.99699762    -0.96800
Zr39       Zr  0.49090854  0.50815829  0.08672139     2.21500
Zr40       Zr  0.48903268  0.50711279  0.90083297     2.11100
O41         O  0.44085999  0.56180332  0.94651320    -2.45500
O42         O  0.44199654  0.56245420  0.04174681    -0.77500
O43         O  0.43490623  0.45974689  0.94770993    -0.69700
O44         O  0.54436208  0.55617683  0.03972882    -2.30600
O45         O  0.43604794  0.45976417  0.04151360    -2.26800
O46         O  0.54335695  0.55568100  0.94625610    -0.71400
H47         H  0.55604325  0.43239143  0.92724678     0.80600
H48         H  0.56548565  0.57477567  0.06014812     0.81600
H49         H  0.42217211  0.58223120  0.92552419     0.83900
H50         H  0.41584039  0.44071844  0.06242904     0.80000
H51         H  0.63506571  0.59408588  0.99804550     0.44500
H52         H  0.58047550  0.66149903  0.97192280     0.43500
H53         H  0.41172637  0.66190484  0.01860846     0.43200
H54         H  0.31064009  0.57757328  0.97793670     0.41100
H55         H  0.32537110  0.43596186  0.01292165     0.44200
H56         H  0.41796775  0.32789116  0.99003742     0.39000
H57         H  0.56283352  0.34319213  0.99011000     0.45100
H58         H  0.63674155  0.41273157  0.97137602     0.41500
H59         H  0.33568774  0.59644817  0.02479218     0.46500
H60         H  0.39068092  0.37146046  0.96701384     0.45200
H61         H  0.67812509  0.45049278  0.97772581     0.45300
H62         H  0.54111308  0.69980880  0.98424536     0.45700
C63         C  0.20691694  0.45788430  0.26869123     0.82300
N64         N  0.24485703  0.48206584  0.24910877    -0.76000
C65         C  0.26636518  0.46456918  0.20862981     0.84800
N66         N  0.24964395  0.42368776  0.18791071    -0.75900
C67         C  0.21208833  0.39972167  0.20744517     0.84900
N68         N  0.19058548  0.41699529  0.24758228    -0.77600
C69         C  0.71924538  0.45873839  0.20585204     0.82300
N70         N  0.73862414  0.41822933  0.18687396    -0.76000
C71         C  0.77757774  0.39760293  0.20746082     0.84800
N72         N  0.79777173  0.41786931  0.24695351    -0.75900
C73         C  0.77882397  0.45844785  0.26638247     0.84900
N74         N  0.73947319  0.47925350  0.24567182    -0.77600
C75         C  0.20429606  0.45609770  0.72121388     0.82300
N76         N  0.24087469  0.47824863  0.74505493    -0.76000
C77         C  0.26375853  0.45480524  0.78148232     0.84800
N78         N  0.24970607  0.40980869  0.79416765    -0.75900
C79         C  0.21338977  0.38778337  0.77030215     0.84900
N80         N  0.19047367  0.41109213  0.73414348    -0.77600
C81         C  0.71536269  0.45562280  0.77856323     0.82300
N82         N  0.73277908  0.41273688  0.79417934    -0.76000
C83         C  0.77179401  0.39292062  0.77284993     0.84800
N84         N  0.79396343  0.41633530  0.73635062    -0.75900
C85         C  0.77701782  0.45920601  0.72045392     0.84900
N86         N  0.73767327  0.47921350  0.74172443    -0.77600
N87         N  0.99783228  0.24942278  0.05901087    -0.34500
N88         N  0.07160544  0.24616632  0.98395486    -0.55100
N89         N  0.99764668  0.24087746  0.90899188    -0.34500
N90         N  0.92415636  0.25030507  0.98400632    -0.55100
C91         C  0.03725024  0.26047357  0.08539131     0.29100
C92         C  0.95895892  0.26158293  0.08563107     0.29100
C93         C  0.03715197  0.24819506  0.88153452     0.29100
C94         C  0.95892843  0.25154883  0.88144191     0.29100
C95         C  0.10043845  0.24523687  0.02312497     0.37700
C96         C  0.10030353  0.23967929  0.94527975     0.37700
C97         C  0.89506536  0.25131235  0.02298376     0.37700
C98         C  0.89515830  0.24831216  0.94500552     0.37700
C99         C  0.02311654  0.27783936  0.13005434    -0.19800
C100        C  0.97390451  0.27842724  0.13024179    -0.19800
C101        C  0.02317366  0.26145811  0.83538210    -0.19800
C102        C  0.97396710  0.26354757  0.83533083    -0.19800
C103        C  0.14771622  0.23795488  0.00929577    -0.20800
C104        C  0.14762816  0.23436041  0.96000979    -0.20800
C105        C  0.84740109  0.24982435  0.00863372    -0.20800
C106        C  0.84750018  0.24823200  0.95934539    -0.20800
C107        C  0.08568609  0.25633037  0.07045649    -0.16200
C108        C  0.91035455  0.25936485  0.07081714    -0.16200
C109        C  0.91043544  0.25219881  0.89665699    -0.16200
C110        C  0.08554239  0.24459619  0.89684848    -0.16200
H111        H  0.04583408  0.28968521  0.15939376     0.16700
H112        H  0.95174247  0.29094625  0.15968214     0.16700
H113        H  0.04602357  0.26976825  0.80496678     0.16700
H114        H  0.95187910  0.27377594  0.80491080     0.16700
H115        H  0.17913626  0.23667567  0.03225625     0.15000
H116        H  0.17900481  0.22986747  0.93745118     0.15000
H117        H  0.81583475  0.25186091  0.03124758     0.15000
H118        H  0.81610104  0.24920676  0.93648487     0.15000
H119        H  0.99747857  0.23437553  0.02494137     0.28300
H120        H  0.99717727  0.22930517  0.94442434     0.28300
O121        O  0.07060631  0.37011133  0.50371872    -0.73200
O122        O  0.12801134  0.42884170  0.49952380    -0.52100
C123        C  0.11456187  0.38467650  0.50302639     0.80500
O124        O  0.91028845  0.49748155  0.36074260    -0.57800
O125        O  0.85365541  0.50277054  0.42013177    -0.50800
C126        C  0.86651107  0.49835457  0.37578528     0.72600
O127        O  0.07270329  0.49306209  0.36197528    -0.72300
O128        O  0.12946161  0.49905085  0.42128995    -0.52900
C129        C  0.11648533  0.49379605  0.37715013     0.78600
O130        O  0.90856526  0.37352081  0.50956979    -0.57500
O131        O  0.85285260  0.43370431  0.50426659    -0.50600
C132        C  0.86511906  0.38942680  0.50974263     0.75200
Zr133      Zr  0.99000600  0.40561909  0.50128985     2.54700
O134        O  0.98733538  0.34352469  0.43957867    -0.78100
O135        O  0.98904493  0.34870230  0.56805330    -0.91500
Zr136      Zr  0.99142150  0.50102660  0.39502321     2.64700
O137        O  0.99103735  0.43658411  0.33557130    -0.96400
O138        O  0.99360766  0.56474632  0.33493375    -0.78500
O139        O  0.03749470  0.45197840  0.44767057    -0.81800
O140        O  0.94380727  0.45319627  0.44759030    -2.16600
O141        O  0.91077254  0.50480681  0.63029062    -0.65200
O142        O  0.85382700  0.50651954  0.57096445    -0.49800
C143        C  0.86697044  0.50375014  0.61529380     0.73500
O144        O  0.07489652  0.63916741  0.49796175    -0.58100
O145        O  0.13097485  0.57916012  0.49829900    -0.50100
C146        C  0.11848596  0.62369516  0.50005643     0.75300
O147        O  0.91253024  0.64217231  0.49659130    -0.69500
O148        O  0.85466724  0.58372925  0.49763552    -0.48200
C149        C  0.86852888  0.62787952  0.49895287     0.76700
O150        O  0.07212662  0.50633506  0.63115215    -0.64900
O151        O  0.12867450  0.50186773  0.57164794    -0.52100
C152        C  0.11562161  0.50218520  0.61606645     0.75100
Zr153      Zr  0.99170123  0.51256500  0.59644320     2.77500
O154        O  0.99152427  0.58531611  0.64529511    -0.95600
O155        O  0.99216926  0.46092616  0.66720488    -0.76400
Zr156      Zr  0.99312724  0.60712383  0.48953097     2.70100
O157        O  0.99471944  0.68040840  0.53740387    -0.77700
O158        O  0.99462224  0.65584085  0.41659724    -0.96800
Zr159      Zr  0.08464324  0.50483616  0.49606543     2.21500
Zr160      Zr  0.89836494  0.50797216  0.49567703     2.11100
O161        O  0.94564562  0.56124130  0.54404259    -2.45500
O162        O  0.03943183  0.55991670  0.54390507    -0.77500
O163        O  0.94462359  0.45953450  0.54913602    -0.69700
O164        O  0.03967398  0.55402750  0.44163637    -2.30600
O165        O  0.03711353  0.45750808  0.54966392    -2.26800
O166        O  0.94470993  0.55572714  0.44124518    -0.71400
H167        H  0.92285565  0.43237802  0.42925539     0.80600
H168        H  0.06082982  0.57230602  0.42101673     0.81600
H169        H  0.92561960  0.58179980  0.56356406     0.83900
H170        H  0.05695455  0.43799769  0.57043646     0.81500
H171        H  0.98395974  0.54882449  0.30454143     0.44500
H172        H  0.96045481  0.66310762  0.40984497     0.43500
H173        H  0.00368902  0.66948607  0.57014314     0.43200
H174        H  0.95713575  0.59320008  0.64977157     0.41100
H175        H  0.00206290  0.42904452  0.65481445     0.44200
H176        H  0.01742819  0.35709268  0.58785967     0.39000
H177        H  0.01439394  0.35137856  0.41780480     0.45100
H178        H  0.96350002  0.41587987  0.34457224     0.41500
H179        H  0.00243751  0.57451222  0.67747491     0.46500
H180        H  0.99724021  0.31735047  0.55330378     0.45200
H181        H  0.98107012  0.45221090  0.30511491     0.45300
H182        H  0.00847530  0.68697512  0.42699302     0.45700
C183        C  0.54231549  0.79680231  0.26360062     0.82300
N184        N  0.51992609  0.75785996  0.24390419    -0.76000
C185        C  0.53962499  0.73580442  0.20480799     0.84800
N186        N  0.58094270  0.75298084  0.18546767    -0.75900
C187        C  0.60311709  0.79163379  0.20506652     0.84900
N188        N  0.58361917  0.81370424  0.24387144    -0.77600
C189        C  0.53459148  0.28404559  0.20835490     0.82300
N190        N  0.51445411  0.26168263  0.24702020    -0.76000
C191        C  0.53715492  0.22332340  0.26734549     0.84800
N192        N  0.57922808  0.20721467  0.24856599    -0.75900
C193        C  0.59917940  0.22978196  0.21018953     0.84900
N194        N  0.57663203  0.26783020  0.19001498    -0.77600
C195        C  0.53530259  0.28443123  0.77789775     0.82300
N196        N  0.57972012  0.27065182  0.79265975    -0.76000
C197        C  0.60300701  0.23453727  0.76977364     0.84800
N198        N  0.58152851  0.21150237  0.73264958    -0.75900
C199        C  0.53717490  0.22489922  0.71763562     0.84900
N200        N  0.51368012  0.26134726  0.74040063    -0.77600
C201        C  0.54093953  0.79212405  0.71771427     0.82300
N202        N  0.58377835  0.80895718  0.73373719    -0.76000
C203        C  0.60630604  0.78740877  0.77113838     0.84800
N204        N  0.58563472  0.74918412  0.79318481    -0.75900
C205        C  0.54277621  0.73193159  0.77744731     0.84900
N206        N  0.52003426  0.75358467  0.73971433    -0.77600
N207        N  0.74032480  0.01325090  0.05472437    -0.34500
N208        N  0.74281982  0.08732471  0.98058922    -0.55100
N209        N  0.75313734  0.01415251  0.90563254    -0.34500
N210        N  0.74716997  0.94002806  0.98005131    -0.55100
C211        C  0.72481000  0.05184004  0.08001182     0.29100
C212        C  0.72714337  0.97351691  0.07964105     0.29100
C213        C  0.74284020  0.05324558  0.87843587     0.29100
C214        C  0.74410694  0.97483408  0.87828299     0.29100
C215        C  0.74212172  0.11606785  0.01982478     0.37700
C216        C  0.74854600  0.11650577  0.94212406     0.37700
C217        C  0.74926585  0.91116337  0.01913012     0.37700
C218        C  0.75485382  0.91168658  0.94136798     0.37700
C219        C  0.70253608  0.03644178  0.12198519    -0.19800
C220        C  0.70396754  0.98712362  0.12173542    -0.19800
C221        C  0.72897152  0.03858880  0.83271155    -0.19800
C222        C  0.72968555  0.98922537  0.83264304    -0.19800
C223        C  0.74745756  0.16373965  0.00625367    -0.20800
C224        C  0.75121969  0.16400328  0.95703543    -0.20800
C225        C  0.75875883  0.86421816  0.00526910    -0.20800
C226        C  0.76219187  0.86452925  0.95595551    -0.20800
C227        C  0.73056219  0.10059524  0.06676622    -0.16200
C228        C  0.73583073  0.92531152  0.06596954    -0.16200
C229        C  0.74797316  0.92630650  0.89322915    -0.16200
C230        C  0.74483616  0.10177505  0.89363620    -0.16200
H231        H  0.68643252  0.05838832  0.14980814     0.16700
H232        H  0.68922034  0.96397607  0.14938141     0.16700
H233        H  0.71867104  0.06106716  0.80259021     0.16700
H234        H  0.72016346  0.96655011  0.80242727     0.16700
H235        H  0.74630802  0.19517098  0.02919068     0.15000
H236        H  0.75308122  0.19565232  0.93450487     0.15000
H237        H  0.76084634  0.83272529  0.02811725     0.15000
H238        H  0.76751570  0.83333082  0.93326770     0.15000
H239        H  0.76016216  0.01402226  0.02311110     0.28300
H240        H  0.76604125  0.01436004  0.94067104     0.28300
C241        C  0.26906544  0.79112884  0.53798475     0.82300
N242        N  0.25046032  0.81090167  0.57845440    -0.76000
C243        C  0.21087241  0.79188922  0.59926723     0.84800
N244        N  0.18921827  0.75305315  0.57930507    -0.75900
C245        C  0.20751302  0.73263054  0.53886616     0.84900
N246        N  0.24749404  0.75187280  0.51777220    -0.77600
C247        C  0.77452132  0.28443211  0.55398378     0.82300
N248        N  0.79084187  0.26754098  0.59679695    -0.76000
C249        C  0.76931801  0.22944349  0.61820646     0.84800
N250        N  0.73162665  0.20753526  0.59633445    -0.75900
C251        C  0.71488555  0.22413350  0.55345247     0.84900
N252        N  0.73657666  0.26254248  0.53194538    -0.77600
C253        C  0.20567329  0.27937172  0.54500301     0.82300
N254        N  0.24262293  0.25647500  0.52239800    -0.76000
C255        C  0.26585099  0.21973371  0.54514825     0.84800
N256        N  0.25174982  0.20584227  0.58983541    -0.75900
C257        C  0.21518366  0.22879247  0.61230424     0.84900
N258        N  0.19202144  0.26520532  0.58971458    -0.77600
C259        C  0.72270672  0.79820656  0.53590153     0.82300
N260        N  0.74025891  0.81720310  0.57728293    -0.76000
C261        C  0.77834103  0.79677810  0.59958816     0.84800
N262        N  0.79945335  0.75742018  0.58013031    -0.75900
C263        C  0.78214699  0.73804011  0.53869875     0.84900
N264        N  0.74372652  0.75857468  0.51624958    -0.77600
N265        N  0.99536009  0.94254923  0.74959205    -0.34500
N266        N  0.06921767  0.01762050  0.75163607    -0.55100
N267        N  0.99562376  0.09192947  0.76304676    -0.34500
N268        N  0.92165957  0.01709256  0.75533530    -0.55100
C269        C  0.03422887  0.91694832  0.73548001     0.29100
C270        C  0.95594753  0.91667176  0.73738748     0.29100
C271        C  0.03464794  0.11975903  0.75433159     0.29100
C272        C  0.95622088  0.11952834  0.75557911     0.29100
C273        C  0.09805554  0.97855680  0.75056093     0.37700
C274        C  0.09819728  0.05613281  0.75785718     0.37700
C275        C  0.89282385  0.97793988  0.75574359     0.37700
C276        C  0.89299128  0.05563693  0.76240468     0.37700
C277        C  0.01932064  0.87346023  0.71594731    -0.19800
C278        C  0.97010463  0.87328943  0.71714017    -0.19800
C279        C  0.01983850  0.16615828  0.74336952    -0.19800
C280        C  0.97050628  0.16601040  0.74413674    -0.19800
C281        C  0.14561863  0.99228030  0.75621176    -0.20800
C282        C  0.14571970  0.04139699  0.76083130    -0.20800
C283        C  0.84557143  0.99163221  0.76344367    -0.20800
C284        C  0.84566976  0.04082299  0.76762468    -0.20800
C285        C  0.08281657  0.93153259  0.73903990    -0.16200
C286        C  0.90749568  0.93099012  0.74317603    -0.16200
C287        C  0.90770946  0.10408472  0.75776935    -0.16200
C288        C  0.08323686  0.10458447  0.75498967    -0.16200
H289        H  0.04149639  0.84495619  0.70150052     0.16700
H290        H  0.94739543  0.84461901  0.70379576     0.16700
H291        H  0.04219035  0.19689420  0.73489114     0.16700
H292        H  0.94777886  0.19664045  0.73643133     0.16700
H293        H  0.17706758  0.96940572  0.75567183     0.15000
H294        H  0.17729674  0.06385176  0.76454384     0.15000
H295        H  0.81413558  0.96869963  0.76427900     0.15000
H296        H  0.81430544  0.06331654  0.77230883     0.15000
H297        H  0.99576179  0.97551465  0.76693790     0.28300
H298        H  0.99587410  0.05620283  0.77357663     0.28300
O299        O  0.50261549  0.92874582  0.35821457    -0.73200
O300        O  0.49919386  0.87113650  0.41690296    -0.52100
C301        C  0.50322295  0.88479604  0.37281907     0.80500
O302        O  0.62600430  0.09103253  0.50394451    -0.57800
O303        O  0.56607537  0.14703782  0.50002513    -0.50800
C304        C  0.61028375  0.13456760  0.50521743     0.72600
O305        O  0.62926740  0.92919133  0.49562000    -0.72300
O306        O  0.57057804  0.87160137  0.49410347    -0.52900
C307        C  0.61467800  0.88521852  0.49593078     0.78600
O308        O  0.49614190  0.09048013  0.35933175    -0.57500
O309        O  0.49453324  0.14674228  0.41932146    -0.50600
C310        C  0.49693672  0.13409314  0.37483827     0.75200
Zr311      Zr  0.49233537  0.00905916  0.39241447     2.54700
O312        O  0.54757971  0.01301133  0.32460312    -0.78100
O313        O  0.42377926  0.00529308  0.33807231    -0.91500
Zr314      Zr  0.59415072  0.00976624  0.49221136     2.64700
O315        O  0.64711283  0.01314597  0.42255270    -0.96400
O316        O  0.66104496  0.00939078  0.54868999    -0.78500
O317        O  0.54472592  0.96246283  0.44125487    -0.81800
O318        O  0.54363123  0.05631908  0.44195912    -2.16600
O319        O  0.35763404  0.08662919  0.49995880    -0.65200
O320        O  0.41616368  0.14439152  0.49845328    -0.49800
C321        C  0.37210421  0.13063962  0.50131328     0.73500
O322        O  0.49701712  0.92578069  0.62786683    -0.58100
O323        O  0.49898320  0.86991671  0.56749290    -0.50100
C324        C  0.49941858  0.88229594  0.61210931     0.75300
O325        O  0.49856235  0.08830705  0.62831859    -0.69500
O326        O  0.49432904  0.14523366  0.56898962    -0.48200
C327        C  0.49785397  0.13214655  0.61322020     0.76700
O328        O  0.36059379  0.92381589  0.49830602    -0.64900
O329        O  0.42109159  0.86829409  0.49597997    -0.52100
C330        C  0.37655249  0.88027911  0.49872536     0.75100
Zr331      Zr  0.39263654  0.00599264  0.49351949     2.77500
O332        O  0.32828976  0.00235883  0.55283389    -0.95600
O333        O  0.33676993  0.00587181  0.42602167    -0.76400
Zr334      Zr  0.49420000  0.00706679  0.59426572     2.70100
O335        O  0.43001191  0.00771205  0.65373628    -0.77700
O336        O  0.55821569  0.00303159  0.65402889    -0.96800
Zr337      Zr  0.49496586  0.91497022  0.49253838     2.21500
Zr338      Zr  0.49188858  0.10097934  0.49390957     2.11100
O339        O  0.44208084  0.05306581  0.54505309    -2.45500
O340        O  0.44351344  0.95979524  0.54434428    -0.77500
O341        O  0.44066315  0.05509636  0.44241292    -0.69700
O342        O  0.54553534  0.96206726  0.54348217    -2.30600
O343        O  0.44251534  0.96016807  0.44166520    -2.26800
O344        O  0.54382421  0.05487838  0.54410990    -0.71400
H345        H  0.56346927  0.07740100  0.42270627     0.80600
H346        H  0.56585257  0.94198757  0.56323688     0.81600
H347        H  0.42250727  0.07301334  0.56566533     0.83900
H348        H  0.42323369  0.93911486  0.42186056     0.81500
H349        H  0.64773155  0.02374071  0.57846280     0.44500
H350        H  0.57639874  0.03340828  0.65013199     0.43500
H351        H  0.44635450  0.00124437  0.68475264     0.43200
H352        H  0.33540174  0.02864472  0.57581941     0.41100
H353        H  0.34293138  0.03665133  0.40914718     0.44200
H354        H  0.43816527  0.00076627  0.30578763     0.39000
H355        H  0.57915967  0.02032348  0.33930481     0.45100
H356        H  0.67913046  0.00442500  0.43540851     0.41500
H357        H  0.29924608  0.01318878  0.53531469     0.46500
H358        H  0.41092293  0.03848427  0.33749270     0.45200
H359        H  0.63756730  0.98514671  0.40268632     0.45300
H360        H  0.54170158  0.00634031  0.68541892     0.45700
C361        C  0.68300130  0.82207411  0.51304359    -0.11200
C362        C  0.65077631  0.84870790  0.50146841    -0.12700
C363        C  0.79872691  0.81944564  0.64130067    -0.16400
C364        C  0.81801322  0.84171264  0.67315061     0.07700
C365        C  0.84427477  0.87088661  0.70536474     0.09500
C366        C  0.87082726  0.89766859  0.72679488    -0.17300
C367        C  0.30425265  0.19366167  0.52215442    -0.11200
C368        C  0.33597874  0.16687221  0.50932721    -0.12700
C369        C  0.11969072  0.13977046  0.74265475    -0.16400
C370        C  0.14814175  0.16601984  0.72316973     0.07700
C371        C  0.17715259  0.19233273  0.69094749     0.09500
C372        C  0.19720541  0.21092540  0.65730349    -0.17300
C373        C  0.67614561  0.19853002  0.53018054    -0.11200
C374        C  0.64503901  0.17166241  0.51577423    -0.12700
C375        C  0.79000821  0.20923181  0.66109498    -0.16400
C376        C  0.81186817  0.19012360  0.69336718     0.07700
C377        C  0.84200601  0.16428025  0.72505747     0.09500
C378        C  0.87085680  0.13867357  0.74487425    -0.17300
C379        C  0.30967189  0.81485898  0.51605195    -0.11200
C380        C  0.34155681  0.84235905  0.50488554    -0.12700
C381        C  0.11880702  0.89793657  0.72220255    -0.16400
C382        C  0.14472175  0.87032909  0.70126435     0.07700
C383        C  0.17034026  0.83954553  0.67029087     0.09500
C384        C  0.18959273  0.81579955  0.63964645    -0.17300
C385        C  0.51776247  0.81745890  0.67894672    -0.11200
C386        C  0.50575686  0.84496678  0.64746970    -0.12700
C387        C  0.64926718  0.80835957  0.79044627    -0.16400
C388        C  0.68171408  0.83026819  0.80898250     0.07700
C389        C  0.71378720  0.86042413  0.83413581     0.09500
C390        C  0.73418943  0.88934444  0.85915313    -0.17300
C391        C  0.51500238  0.19772498  0.67960718    -0.11200
C392        C  0.50370588  0.16936356  0.64868655    -0.12700
C393        C  0.73273174  0.13848427  0.85869117    -0.16400
C394        C  0.71328107  0.16718021  0.83274882     0.07700
C395        C  0.68101500  0.19639694  0.80690586     0.09500
C396        C  0.64755340  0.21663250  0.78838659    -0.17300
C397        C  0.51618867  0.19771520  0.30717710    -0.11200
C398        C  0.50404103  0.17106343  0.33930828    -0.12700
C399        C  0.64064178  0.21000789  0.18697251    -0.16400
C400        C  0.67078708  0.19069512  0.16269345     0.07700
C401        C  0.69917657  0.16373767  0.13058735     0.09500
C402        C  0.71690494  0.13672501  0.10175668    -0.17300
C403        C  0.51082721  0.84849402  0.33667019    -0.11200
C404        C  0.52215436  0.82202990  0.30408915    -0.12700
C405        C  0.64405588  0.81225500  0.18148705    -0.16400
C406        C  0.67437339  0.83257824  0.15816411     0.07700
C407        C  0.70374620  0.86039840  0.12759907     0.09500
C408        C  0.72233917  0.88804810  0.09986599    -0.17300
C409        C  0.80018234  0.32350775  0.53151803    -0.11200
C410        C  0.82765198  0.35472259  0.51868988    -0.12700
C411        C  0.80659702  0.69720162  0.51822985    -0.11200
C412        C  0.83258746  0.66442131  0.50642169    -0.12700
C413        C  0.15129991  0.34863484  0.50953461    -0.11200
C414        C  0.17889130  0.31729909  0.52182165    -0.12700
C415        C  0.18250929  0.69190083  0.51828876    -0.11200
C416        C  0.15564011  0.65941997  0.50708727    -0.12700
C417        C  0.80279923  0.48324259  0.68235896    -0.11200
C418        C  0.83015665  0.49621018  0.65106956    -0.12700
C419        C  0.79293485  0.35001002  0.79212286    -0.16400
C420        C  0.81525515  0.31785714  0.81066841     0.07700
C421        C  0.84579452  0.28641261  0.83609092     0.09500
C422        C  0.87448798  0.26644232  0.86166972    -0.17300
C423        C  0.17842954  0.48015047  0.68343778    -0.11200
C424        C  0.15186363  0.49394542  0.65197688    -0.12700
C425        C  0.19540638  0.34252941  0.78725205    -0.16400
C426        C  0.17637755  0.30868724  0.80644823     0.07700
C427        C  0.14939259  0.27621996  0.83445540     0.09500
C428        C  0.12222984  0.25658051  0.86187783    -0.17300
C429        C  0.82946034  0.49140738  0.33990441    -0.11200
C430        C  0.80287434  0.47976048  0.30732238    -0.12700
C431        C  0.79994828  0.35705923  0.18471554    -0.16400
C432        C  0.82065608  0.32630472  0.16230538     0.07700
C433        C  0.84785906  0.29541481  0.13269587     0.09500
C434        C  0.87445468  0.27500712  0.10525454    -0.17300
C435        C  0.15361376  0.48669261  0.34171439    -0.11200
C436        C  0.18114348  0.47638385  0.30967039    -0.12700
C437        C  0.12216004  0.27270518  0.10395297    -0.16400
C438        C  0.14826684  0.29438301  0.13094143     0.07700
C439        C  0.17385299  0.32681020  0.16040288     0.09500
C440        C  0.19258306  0.35853105  0.18325044    -0.17300
C441        C  0.51103947  0.32296910  0.18401251    -0.11200
C442        C  0.49889417  0.35430960  0.15656399    -0.12700
C443        C  0.51665536  0.69560299  0.18161193    -0.11200
C444        C  0.50460759  0.66315234  0.15528853    -0.12700
C445        C  0.50945151  0.66057144  0.83039853    -0.11200
C446        C  0.52128520  0.69234783  0.80311147    -0.12700
C447        C  0.67505272  0.47649072  0.80360674    -0.11200
C448        C  0.64289783  0.48846007  0.83034799    -0.12700
C449        C  0.49750451  0.35245984  0.83194172    -0.11200
C450        C  0.51103390  0.32170458  0.80437037    -0.12700
C451        C  0.33319470  0.49075133  0.83520251    -0.11200
C452        C  0.30172502  0.47748524  0.80833533    -0.12700
C453        C  0.33713084  0.50214199  0.15840914    -0.11200
C454        C  0.30548182  0.48933181  0.18535879    -0.12700
C455        C  0.64617255  0.49102197  0.15469343    -0.11200
C456        C  0.67862853  0.47995978  0.18153488    -0.12700
loop_ 
_geom_bond_atom_site_label_1 
_geom_bond_atom_site_label_2 
_geom_bond_distance 
_geom_bond_site_symmetry_2 
_ccdc_geom_bond_type 
O1          Zr13   2.449   1_554  S
O1            C3   1.288       .  A
O2          Zr39   2.418       .  S
O2            C3   1.283       .  A
C3          C442   1.435       .  S
O4          Zr16   2.449       .  S
O4            C6   1.287       .  A
O5          Zr40   2.436       .  S
O5            C6   1.287       .  A
C6          C448   1.442       .  S
O7          Zr16   2.446   1_554  S
O7            C9   1.288       .  A
O8          Zr39   2.434       .  S
O8            C9   1.286       .  A
C9          C455   1.443       .  S
O10         Zr13   2.456       .  S
O10          C12   1.289       .  A
O11         Zr40   2.425       .  S
O11          C12   1.285       .  A
C12         C449   1.440       .  S
Zr13         O14   2.434       .  S
Zr13         O15   2.434       .  S
Zr13         O19   2.377   1_556  S
Zr13         O20   2.372       .  S
Zr13         O43   2.366       .  S
Zr13         O45   2.365   1_556  S
O14          H57   0.990       .  S
O15          H56   0.990       .  S
O15          H60   0.990       .  S
Zr16         O17   2.438       .  S
Zr16         O18   2.433       .  S
Zr16         O20   2.368       .  S
Zr16         O19   2.373   1_556  S
Zr16         O44   2.371   1_556  S
Zr16         O46   2.374       .  S
O17          H58   0.990       .  S
O17          H61   0.990       .  S
O18          H51   0.990       .  S
O19         Zr39   2.387       .  S
O20         Zr40   2.389       .  S
O20          H47   0.965       .  S
O21         Zr33   2.444       .  S
O21          C23   1.287       .  A
O22         Zr40   2.433       .  S
O22          C23   1.287       .  A
C23         C451   1.439       .  S
O24         Zr36   2.448   1_554  S
O24          C26   1.288       .  A
O25         Zr39   2.429       .  S
O25          C26   1.286       .  A
C26         C444   1.440       .  S
O27         Zr36   2.450       .  S
O27          C29   1.288       .  A
O28         Zr40   2.430       .  S
O28          C29   1.286       .  A
C29         C445   1.441       .  S
O30         Zr33   2.455   1_554  S
O30          C32   1.289       .  A
O31         Zr39   2.430       .  S
O31          C32   1.286       .  A
C32         C453   1.442       .  S
Zr33         O34   2.434       .  S
Zr33         O35   2.435       .  S
Zr33         O41   2.376       .  S
Zr33         O42   2.371   1_556  S
Zr33         O45   2.376   1_556  S
Zr33         O43   2.380       .  S
O34          H54   0.990       .  S
O34          H59   0.990   1_556  S
O35          H55   0.990   1_556  S
Zr36         O37   2.434       .  S
Zr36         O38   2.436       .  S
Zr36         O42   2.375   1_556  S
Zr36         O41   2.376       .  S
Zr36         O46   2.378       .  S
Zr36         O44   2.377   1_556  S
O37          H53   0.990   1_556  S
O38          H52   0.990       .  S
O38          H62   0.990       .  S
Zr39         O42   2.385       .  S
Zr39         O44   2.386       .  S
Zr39         O45   2.390       .  S
Zr40         O41   2.393       .  S
Zr40         O43   2.386       .  S
Zr40         O46   2.387       .  S
O41          H49   0.966       .  S
O44          H48   0.966       .  S
O45          H50   0.966       .  S
C63         C436   1.441       .  S
C63          N64   1.365       .  A
C63          N68   1.357       .  A
N64          C65   1.364       .  A
C65         C454   1.441       .  S
C65          N66   1.356       .  A
N66          C67   1.353       .  A
C67         C440   1.434       .  S
C67          N68   1.354       .  A
C69         C456   1.443       .  S
C69          N70   1.356       .  A
C69          N74   1.365       .  A
N70          C71   1.353       .  A
C71         C431   1.435       .  S
C71          N72   1.355       .  A
N72          C73   1.358       .  A
C73         C430   1.446       .  S
C73          N74   1.366       .  A
C75         C423   1.437       .  S
C75          N76   1.361       .  A
C75          N80   1.357       .  A
N76          C77   1.361       .  A
C77         C452   1.438       .  S
C77          N78   1.357       .  A
N78          C79   1.354       .  A
C79         C425   1.433       .  S
C79          N80   1.354       .  A
C81         C447   1.443       .  S
C81          N82   1.358       .  A
C81          N86   1.364       .  A
N82          C83   1.355       .  A
C83         C419   1.434       .  S
C83          N84   1.353       .  A
N84          C85   1.356       .  A
C85         C417   1.442       .  S
C85          N86   1.364       .  A
N87          C92   1.354       .  A
N87          C91   1.354   1_655  A
N87         H119   1.035       .  S
N88          C95   1.351   1_556  A
N88          C96   1.351       .  A
N89          C94   1.354       .  A
N89          C93   1.354   1_655  A
N89         H120   1.035       .  S
N90          C97   1.352   1_556  A
N90          C98   1.351       .  A
C91          C99   1.388       .  A
C91         C107   1.416       .  A
C92         C108   1.415       .  A
C92         C100   1.388       .  A
C93         C101   1.389       .  A
C93         C110   1.416       .  A
C94         C109   1.415       .  A
C94         C102   1.388       .  A
C95         C107   1.411       .  A
C95         C103   1.386       .  A
C96         C110   1.412       .  A
C96         C104   1.387       .  A
C97         C105   1.386       .  A
C97         C108   1.412       .  A
C98         C106   1.385       .  A
C98         C109   1.413       .  A
C99         C100   1.370   1_455  A
C99         H111   1.082       .  S
C100        H112   1.082       .  S
C101        C102   1.371   1_455  A
C101        H113   1.082       .  S
C102        H114   1.082       .  S
C103        C104   1.372   1_554  A
C103        H115   1.082       .  S
C104        H116   1.082       .  S
C105        C106   1.369   1_554  A
C105        H117   1.082       .  S
C106        H118   1.080       .  S
C107        C437   1.450       .  S
C108        C434   1.451       .  S
C109        C422   1.449       .  S
C110        C428   1.448       .  S
O121       Zr133   2.453   1_455  S
O121        C123   1.289       .  A
O122       Zr159   2.436       .  S
O122        C123   1.287       .  A
C123        C413   1.443       .  S
O124       Zr136   2.452       .  S
O124        C126   1.289       .  A
O125       Zr160   2.442       .  S
O125        C126   1.288       .  A
C126        C429   1.446       .  S
O127       Zr136   2.452   1_455  S
O127        C129   1.289       .  A
O128       Zr159   2.428       .  S
O128        C129   1.286       .  A
C129        C435   1.441       .  S
O130       Zr133   2.446       .  S
O130        C132   1.288       .  A
O131       Zr160   2.433       .  S
O131        C132   1.287       .  A
C132        C410   1.442       .  S
Zr133       O134   2.434       .  S
Zr133       O135   2.437       .  S
Zr133       O139   2.371   1_655  S
Zr133       O140   2.371       .  S
Zr133       O163   2.370       .  S
Zr133       O165   2.367   1_655  S
O134        H177   0.990   1_655  S
O135        H176   0.990   1_655  S
O135        H180   0.990       .  S
Zr136       O137   2.437       .  S
Zr136       O138   2.433       .  S
Zr136       O140   2.377       .  S
Zr136       O139   2.375   1_655  S
Zr136       O164   2.376   1_655  S
Zr136       O166   2.379       .  S
O137        H178   0.990       .  S
O137        H181   0.990       .  S
O138        H171   0.990       .  S
O139       Zr159   2.384       .  S
O140       Zr160   2.389       .  S
O140        H167   0.966       .  S
O141       Zr153   2.451       .  S
O141        C143   1.288       .  A
O142       Zr160   2.431       .  S
O142        C143   1.286       .  A
C143        C418   1.443       .  S
O144       Zr156   2.454   1_455  S
O144        C146   1.289       .  A
O145       Zr159   2.435       .  S
O145        C146   1.287       .  A
C146        C416   1.446       .  S
O147       Zr156   2.455       .  S
O147        C149   1.289       .  A
O148       Zr160   2.434       .  S
O148        C149   1.287       .  A
C149        C412   1.442       .  S
O150       Zr153   2.443   1_455  S
O150        C152   1.287       .  A
O151       Zr159   2.431       .  S
O151        C152   1.286       .  A
C152        C424   1.436       .  S
Zr153       O154   2.436       .  S
Zr153       O155   2.433       .  S
Zr153       O161   2.364       .  S
Zr153       O162   2.371   1_655  S
Zr153       O165   2.374   1_655  S
Zr153       O163   2.369       .  S
O154        H174   0.990       .  S
O154        H179   0.990   1_655  S
O155        H175   0.990   1_655  S
Zr156       O157   2.433       .  S
Zr156       O158   2.436       .  S
Zr156       O162   2.379   1_655  S
Zr156       O161   2.380       .  S
Zr156       O166   2.377       .  S
Zr156       O164   2.374   1_655  S
O157        H173   0.990   1_655  S
O158        H172   0.990       .  S
O158        H182   0.990   1_655  S
Zr159       O162   2.388       .  S
Zr159       O164   2.391       .  S
Zr159       O165   2.386       .  S
Zr160       O161   2.393       .  S
Zr160       O163   2.382       .  S
Zr160       O166   2.389       .  S
O161        H169   0.966       .  S
O164        H168   0.966       .  S
O165        H170   0.965       .  S
C183        C404   1.440       .  S
C183        N184   1.363       .  A
C183        N188   1.357       .  A
N184        C185   1.363       .  A
C185        C443   1.439       .  S
C185        N186   1.356       .  A
N186        C187   1.353       .  A
C187        C405   1.434       .  S
C187        N188   1.354       .  A
C189        C441   1.434       .  S
C189        N190   1.361       .  A
C189        N194   1.354       .  A
N190        C191   1.362       .  A
C191        C397   1.439       .  S
C191        N192   1.359       .  A
N192        C193   1.355       .  A
C193        C399   1.433       .  S
C193        N194   1.351       .  A
C195        C450   1.440       .  S
C195        N196   1.358       .  A
C195        N200   1.363       .  A
N196        C197   1.354       .  A
C197        C396   1.432       .  S
C197        N198   1.352       .  A
N198        C199   1.355       .  A
C199        C391   1.437       .  S
C199        N200   1.362       .  A
C201        C385   1.439       .  S
C201        N202   1.355       .  A
C201        N206   1.363       .  A
N202        C203   1.353       .  A
C203        C387   1.433       .  S
C203        N204   1.354       .  A
N204        C205   1.357       .  A
C205        C446   1.441       .  S
C205        N206   1.364       .  A
N207        C212   1.354   1_545  A
N207        C211   1.354       .  A
N207        H239   1.038       .  S
N208        C215   1.352   1_556  A
N208        C216   1.350       .  A
N209        C214   1.355   1_545  A
N209        C213   1.354       .  A
N209        H240   1.037       .  S
N210        C217   1.350   1_556  A
N210        C218   1.350       .  A
C211        C219   1.388       .  A
C211        C227   1.413       .  A
C212        C228   1.414       .  A
C212        C220   1.388       .  A
C213        C221   1.388       .  A
C213        C230   1.415       .  A
C214        C229   1.415       .  A
C214        C222   1.388       .  A
C215        C227   1.410       .  A
C215        C223   1.385       .  A
C216        C230   1.411       .  A
C216        C224   1.386       .  A
C217        C225   1.386       .  A
C217        C228   1.410       .  A
C218        C226   1.387       .  A
C218        C229   1.410       .  A
C219        C220   1.372   1_545  A
C219        H231   1.082       .  S
C220        H232   1.082       .  S
C221        C222   1.372   1_545  A
C221        H233   1.082       .  S
C222        H234   1.082       .  S
C223        C224   1.371   1_554  A
C223        H235   1.082       .  S
C224        H236   1.080       .  S
C225        C226   1.373   1_554  A
C225        H237   1.082       .  S
C226        H238   1.083       .  S
C227        C402   1.449       .  S
C228        C408   1.449       .  S
C229        C390   1.448       .  S
C230        C393   1.448       .  S
C241        C379   1.443       .  S
C241        N242   1.355       .  A
C241        N246   1.366       .  A
N242        C243   1.352       .  A
C243        C384   1.433       .  S
C243        N244   1.355       .  A
N244        C245   1.358       .  A
C245        C415   1.446       .  S
C245        N246   1.366       .  A
C247        C409   1.441       .  S
C247        N248   1.356       .  A
C247        N252   1.363       .  A
N248        C249   1.354       .  A
C249        C375   1.437       .  S
C249        N250   1.356       .  A
N250        C251   1.359       .  A
C251        C373   1.444       .  S
C251        N252   1.364       .  A
C253        C414   1.443       .  S
C253        N254   1.364       .  A
C253        N258   1.357       .  A
N254        C255   1.364       .  A
C255        C367   1.442       .  S
C255        N256   1.357       .  A
N256        C257   1.354       .  A
C257        C372   1.435       .  S
C257        N258   1.354       .  A
C259        C361   1.437       .  S
C259        N260   1.355       .  A
C259        N264   1.362       .  A
N260        C261   1.352       .  A
C261        C363   1.435       .  S
C261        N262   1.355       .  A
N262        C263   1.358       .  A
C263        C411   1.441       .  S
C263        N264   1.363       .  A
N265        C270   1.354       .  A
N265        C269   1.354   1_655  A
N265        H297   1.036       .  S
N266        C273   1.351   1_545  A
N266        C274   1.351       .  A
N267        C272   1.355       .  A
N267        C271   1.355   1_655  A
N267        H298   1.035       .  S
N268        C275   1.352   1_545  A
N268        C276   1.351       .  A
C269        C277   1.388       .  A
C269        C285   1.415       .  A
C270        C286   1.416       .  A
C270        C278   1.388       .  A
C271        C279   1.388       .  A
C271        C288   1.417       .  A
C272        C287   1.418       .  A
C272        C280   1.388       .  A
C273        C285   1.411       .  A
C273        C281   1.386       .  A
C274        C288   1.412       .  A
C274        C282   1.387       .  A
C275        C283   1.386       .  A
C275        C286   1.412       .  A
C276        C284   1.387       .  A
C276        C287   1.413       .  A
C277        C278   1.370   1_455  A
C277        H289   1.082       .  S
C278        H290   1.082       .  S
C279        C280   1.373   1_455  A
C279        H291   1.082       .  S
C280        H292   1.082       .  S
C281        C282   1.371   1_565  A
C281        H293   1.082       .  S
C282        H294   1.082       .  S
C283        C284   1.372   1_565  A
C283        H295   1.082       .  S
C284        H296   1.082       .  S
C285        C381   1.448       .  S
C286        C366   1.451       .  S
C287        C378   1.451       .  S
C288        C369   1.450       .  S
O299       Zr311   2.444   1_565  S
O299        C301   1.287       .  A
O300       Zr337   2.432       .  S
O300        C301   1.286       .  A
C301        C403   1.440       .  S
O302       Zr314   2.448       .  S
O302        C304   1.288       .  A
O303       Zr338   2.435       .  S
O303        C304   1.287       .  A
C304        C374   1.443       .  S
O305       Zr314   2.446   1_565  S
O305        C307   1.288       .  A
O306       Zr337   2.427       .  S
O306        C307   1.285       .  A
C307        C362   1.437       .  S
O308       Zr311   2.444       .  S
O308        C310   1.287       .  A
O309       Zr338   2.431       .  S
O309        C310   1.286       .  A
C310        C398   1.438       .  S
Zr311       O312   2.434       .  S
Zr311       O313   2.434       .  S
Zr311       O317   2.375   1_545  S
Zr311       O318   2.378       .  S
Zr311       O341   2.375       .  S
Zr311       O343   2.374   1_545  S
O312        H355   0.990       .  S
O313        H354   0.990       .  S
O313        H358   0.990       .  S
Zr314       O315   2.434       .  S
Zr314       O316   2.434       .  S
Zr314       O318   2.366       .  S
Zr314       O317   2.371   1_545  S
Zr314       O342   2.369   1_545  S
Zr314       O344   2.371       .  S
O315        H356   0.990       .  S
O315        H359   0.990   1_545  S
O316        H349   0.990       .  S
O317       Zr337   2.385       .  S
O318       Zr338   2.388       .  S
O318        H345   0.966       .  S
O319       Zr331   2.452       .  S
O319        C321   1.288       .  A
O320       Zr338   2.433       .  S
O320        C321   1.287       .  A
C321        C368   1.441       .  S
O322       Zr334   2.445   1_565  S
O322        C324   1.288       .  A
O323       Zr337   2.431       .  S
O323        C324   1.286       .  A
C324        C386   1.439       .  S
O325       Zr334   2.452       .  S
O325        C327   1.289       .  A
O326       Zr338   2.422       .  S
O326        C327   1.284       .  A
C327        C392   1.438       .  S
O328       Zr331   2.455   1_565  S
O328        C330   1.290       .  A
O329       Zr337   2.432       .  S
O329        C330   1.286       .  A
C330        C380   1.445       .  S
Zr331       O332   2.436       .  S
Zr331       O333   2.434       .  S
Zr331       O339   2.377       .  S
Zr331       O340   2.376   1_545  S
Zr331       O343   2.373   1_545  S
Zr331       O341   2.379       .  S
O332        H352   0.990       .  S
O332        H357   0.990       .  S
O333        H353   0.990       .  S
Zr334       O335   2.434       .  S
Zr334       O336   2.437       .  S
Zr334       O340   2.374   1_545  S
Zr334       O339   2.368       .  S
Zr334       O344   2.369       .  S
Zr334       O342   2.367   1_545  S
O335        H351   0.990       .  S
O336        H350   0.990       .  S
O336        H360   0.990       .  S
Zr337       O340   2.383       .  S
Zr337       O342   2.386       .  S
Zr337       O343   2.388       .  S
Zr338       O339   2.390       .  S
Zr338       O341   2.388       .  S
Zr338       O344   2.382       .  S
O339        H347   0.966       .  S
O342        H346   0.965       .  S
O343        H348   0.966       .  S
C361        C362   1.207       .  T
C363        C364   1.205       .  T
C364        C365   1.411       .  S
C365        C366   1.206       .  T
C367        C368   1.210       .  T
C369        C370   1.205       .  T
C370        C371   1.410       .  S
C371        C372   1.205       .  T
C373        C374   1.211       .  T
C375        C376   1.206       .  T
C376        C377   1.412       .  S
C377        C378   1.206       .  T
C379        C380   1.211       .  T
C381        C382   1.204       .  T
C382        C383   1.408       .  S
C383        C384   1.204       .  T
C385        C386   1.208       .  T
C387        C388   1.204       .  T
C388        C389   1.409       .  S
C389        C390   1.204       .  T
C391        C392   1.207       .  T
C393        C394   1.203       .  T
C394        C395   1.407       .  S
C395        C396   1.203       .  T
C397        C398   1.208       .  T
C399        C400   1.204       .  T
C400        C401   1.408       .  S
C401        C402   1.204       .  T
C403        C404   1.209       .  T
C405        C406   1.204       .  T
C406        C407   1.409       .  S
C407        C408   1.204       .  T
C409        C410   1.210       .  T
C411        C412   1.210       .  T
C413        C414   1.211       .  T
C415        C416   1.213       .  T
C417        C418   1.210       .  T
C419        C420   1.204       .  T
C420        C421   1.409       .  S
C421        C422   1.204       .  T
C423        C424   1.207       .  T
C425        C426   1.204       .  T
C426        C427   1.408       .  S
C427        C428   1.204       .  T
C429        C430   1.212       .  T
C431        C432   1.205       .  T
C432        C433   1.410       .  S
C433        C434   1.205       .  T
C435        C436   1.209       .  T
C437        C438   1.205       .  T
C438        C439   1.410       .  S
C439        C440   1.205       .  T
C441        C442   1.206       .  T
C443        C444   1.208       .  T
C445        C446   1.209       .  T
C447        C448   1.210       .  T
C449        C450   1.209       .  T
C451        C452   1.208       .  T
C453        C454   1.209       .  T
C455        C456   1.211       .  T
