geometry optimzed in LAMMPS
_audit_creation_date              2020-11-30 
_audit_creation_method            'lammps2cif' 
_symmetry_space_group_name_H-M    'P1' 
_symmetry_Int_Tables_number       1 
_symmetry_cell_setting            triclinic 
loop_ 
_symmetry_equiv_pos_as_xyz 
  x,y,z 
_cell_length_a                    32.32695892203006 
_cell_length_b                    32.28922140779826 
_cell_length_c                    32.28231966972106 
_cell_angle_alpha                 90.18821838518544 
_cell_angle_beta                  89.93164210816644 
_cell_angle_gamma                 90.08364906314873 
loop_ 
_atom_site_label 
_atom_site_type_symbol 
_atom_site_fract_x 
_atom_site_fract_y 
_atom_site_fract_z 
_atom_site_charge 
C1          C  0.21767461  0.86719557  0.96516029     0.03320
C2          C  0.21771495  0.84709539  0.00277627    -0.12830
C3          C  0.21897748  0.86873925  0.03964917     0.00820
C4          C  0.22095181  0.91245886  0.03940278    -0.11360
C5          C  0.22088705  0.93502609  0.00124169     0.03310
C6          C  0.21973596  0.91085946  0.96393167    -0.10780
H7          H  0.21698707  0.81343862  0.00339461     0.08910
H8          H  0.22239533  0.92780390  0.06904494     0.06440
H9          H  0.21996524  0.92486480  0.93371627     0.06280
C10         C  0.65279287  0.05373818  0.96367111     0.03320
C11         C  0.64822534  0.07398298  0.00112032    -0.12830
C12         C  0.64919498  0.05289704  0.03816376     0.00820
C13         C  0.65295979  0.00932719  0.03821584    -0.11360
C14         C  0.65549739  0.98632479  0.00031792     0.03310
C15         C  0.65666259  0.01008151  0.96287616    -0.10780
H16         H  0.64717473  0.10762479  0.00165858     0.08910
H17         H  0.65389635  0.99444985  0.06800668     0.06440
H18         H  0.66069504  0.99571495  0.93298722     0.06280
C19         C  0.90964094  0.68551157  0.08982686     0.03320
C20         C  0.94687704  0.68535954  0.11066702    -0.12830
C21         C  0.98400953  0.68264393  0.08986838     0.00820
C22         C  0.98453923  0.67877173  0.04631856    -0.11360
C23         C  0.94688878  0.67861469  0.02292455     0.03310
C24         C  0.90921069  0.68186928  0.04615837    -0.10780
H25         H  0.94705679  0.68717602  0.14429994     0.08910
H26         H  0.01440854  0.67594083  0.03178233     0.06440
H27         H  0.87938320  0.68201435  0.03134370     0.06280
C28         C  0.98135154  0.24069080  0.90757135     0.03320
C29         C  0.94400414  0.24332227  0.88720809    -0.12830
C30         C  0.90711327  0.24518019  0.90846924     0.00820
C31         C  0.90704172  0.24670185  0.95219613    -0.11360
C32         C  0.94497867  0.24555269  0.97517200     0.03310
C33         C  0.98234782  0.24234193  0.95135293    -0.10780
H34         H  0.94350498  0.24310508  0.85352616     0.08910
H35         H  0.87731315  0.24851116  0.96716619     0.06440
H36         H  0.01230743  0.24052023  0.96576978     0.06280
C37         C  0.65513649  0.87123186  0.03649227     0.03320
C38         C  0.65712873  0.91495700  0.03747513    -0.12830
C39         C  0.65661642  0.93863401  0.99993177     0.00820
C40         C  0.65670120  0.91550338  0.96197290    -0.11360
C41         C  0.65491258  0.87178519  0.96209857     0.03310
C42         C  0.65312115  0.85074627  0.99910268    -0.10780
H43         H  0.65914232  0.92939290  0.06752819     0.08910
H44         H  0.65801712  0.93038072  0.93218691     0.06440
H45         H  0.65278974  0.81705581  0.99881496     0.06280
C46         C  0.22233015  0.05083531  0.03600338     0.03320
C47         C  0.22112868  0.00707675  0.03753390    -0.12830
C48         C  0.22188529  0.98269692  0.00029566     0.00820
C49         C  0.22231558  0.00509974  0.96202769    -0.11360
C50         C  0.22354678  0.04878004  0.96160977     0.03310
C51         C  0.22599064  0.07044418  0.99834334    -0.10780
H52         H  0.21876259  0.99314503  0.06771753     0.08910
H53         H  0.22105216  0.98976917  0.93239312     0.06440
H54         H  0.22853105  0.10400978  0.99751978     0.06280
C55         C  0.91006803  0.66755527  0.90841969     0.03320
C56         C  0.90939745  0.67229329  0.95198155    -0.12830
C57         C  0.94697338  0.67480058  0.97537367     0.00820
C58         C  0.98470841  0.67445532  0.95207875    -0.11360
C59         C  0.98455181  0.66926270  0.90859972     0.03310
C60         C  0.94743594  0.66509561  0.88792972    -0.10780
H61         H  0.87945185  0.67420516  0.96650828     0.08910
H62         H  0.01439371  0.67861058  0.96662759     0.06440
H63         H  0.94755806  0.66318881  0.85431132     0.06280
C64         C  0.90892082  0.25137362  0.09050674     0.03320
C65         C  0.90811077  0.24895477  0.04672474    -0.12830
C66         C  0.94553943  0.24738840  0.02289612     0.00820
C67         C  0.98346693  0.24725523  0.04585882    -0.11360
C68         C  0.98343747  0.24974180  0.08955941     0.03310
C69         C  0.94648272  0.25179849  0.11079285    -0.10780
H70         H  0.87811413  0.24813829  0.03229965     0.08910
H71         H  0.01318056  0.24531971  0.03086726     0.06440
H72         H  0.94708127  0.25174244  0.14445073     0.06280
C73         C  0.85772143  0.99372606  0.28189940     0.03320
C74         C  0.83734359  0.95673534  0.28779885    -0.12830
C75         C  0.85817610  0.91956205  0.28702754     0.00820
C76         C  0.90178407  0.91920219  0.28379729    -0.11360
C77         C  0.92493272  0.95707585  0.28227576     0.03310
C78         C  0.90135468  0.99457151  0.28048776    -0.10780
H79         H  0.80376746  0.95670110  0.28982859     0.08910
H80         H  0.91653955  0.88934609  0.28229258     0.06440
H81         H  0.91575458  0.02448835  0.27735404     0.06280
C82         C  0.03736264  0.92773994  0.72648727     0.03320
C83         C  0.05812928  0.96479340  0.72237363    -0.12830
C84         C  0.03740539  0.00198279  0.72195740     0.00820
C85         C  0.99377920  0.00259437  0.72250767    -0.11360
C86         C  0.97037707  0.96490635  0.72470618     0.03310
C87         C  0.99364624  0.92722399  0.72694869    -0.10780
H88         H  0.09172528  0.96483526  0.72070378     0.08910
H89         H  0.97924829  0.03254980  0.72132643     0.06440
H90         H  0.97887793  0.89742450  0.72957949     0.06280
C91         C  0.85624686  0.00265818  0.72364017     0.03320
C92         C  0.89980559  0.00286462  0.72532261    -0.12830
C93         C  0.92278828  0.96500740  0.72470376     0.00820
C94         C  0.89911192  0.92739861  0.72473555    -0.11360
C95         C  0.85532578  0.92813132  0.72341439     0.03310
C96         C  0.83525349  0.96567820  0.71994586    -0.10780
H97         H  0.91462664  0.03265068  0.72784027     0.08910
H98         H  0.91368615  0.89748636  0.72633953     0.06440
H99         H  0.80183116  0.96629578  0.71650631     0.06280
C100        C  0.03982480  0.92114477  0.28726492     0.03320
C101        C  0.99614624  0.92013135  0.28540984    -0.12830
C102        C  0.97253326  0.95748865  0.28214805     0.00820
C103        C  0.99559875  0.99527611  0.27900380    -0.11360
C104        C  0.03926595  0.99520022  0.27975291     0.03310
C105        C  0.06031734  0.95855386  0.28531722    -0.10780
H106        H  0.98165689  0.89010717  0.28674296     0.08910
H107        H  0.98074842  0.02487296  0.27541322     0.06440
H108        H  0.09392348  0.95902691  0.28628044     0.06280
C109        C  0.41092076  0.36863141  0.20768515     0.03320
C110        C  0.44754734  0.34710886  0.21142039    -0.12830
C111        C  0.48514421  0.36716142  0.21472911     0.00820
C112        C  0.48644507  0.41095248  0.21603040    -0.11360
C113        C  0.44941845  0.43490613  0.21219473     0.03310
C114        C  0.41146246  0.41239385  0.20809509    -0.10780
H115        H  0.44671018  0.31351950  0.21310819     0.08910
H116        H  0.51623657  0.42546765  0.22013788     0.06440
H117        H  0.38221676  0.42804136  0.20463025     0.06280
O118        O  0.67932568  0.14997269  0.19834627    -0.85160
O119        O  0.69816421  0.12293466  0.27433090    -0.82200
C120        C  0.73760622  0.12243527  0.27247395     0.98300
O121        O  0.75737691  0.15512114  0.26783039    -0.82240
O122        O  0.78022311  0.23268394  0.25049593    -0.84880
C123        C  0.77983995  0.23147202  0.21085721     1.02830
O124        O  0.74646167  0.22945513  0.19169879    -0.77640
O125        O  0.66876508  0.21054311  0.17030101    -0.77830
C126        C  0.67344610  0.17134403  0.16694876     1.02780
O127        O  0.61377451  0.20650955  0.22878379    -0.85150
O128        O  0.63893920  0.18391096  0.30447681    -0.82220
C129        C  0.66023490  0.18035453  0.33636928     0.98320
O130        O  0.69983102  0.18016380  0.33454649    -0.82250
O131        O  0.71896161  0.25780647  0.31323321    -0.84850
C132        C  0.72202350  0.29087724  0.29381050     1.02800
O133        O  0.72145820  0.29091893  0.25422454    -0.77670
O134        O  0.64404839  0.26629697  0.23907548    -0.77820
C135        C  0.61180964  0.24573221  0.23444103     1.02760
Cr136      Cr  0.65973822  0.16814593  0.25136343     1.93740
Cr137      Cr  0.73673929  0.20643724  0.28936940     1.93210
Cr138      Cr  0.69522629  0.24705329  0.21596617     1.39100
O139        O  0.69720272  0.20734411  0.25254934    -1.22910
C140        C  0.41081067  0.37178360  0.78119359     0.03320
C141        C  0.44824732  0.35153467  0.78353803    -0.12830
C142        C  0.48516480  0.37285329  0.78424072     0.00820
C143        C  0.48513804  0.41661464  0.78540211    -0.11360
C144        C  0.44707254  0.43942452  0.78515795     0.03310
C145        C  0.40976813  0.41550404  0.78271750    -0.10780
H146        H  0.44880578  0.31787340  0.78395327     0.08910
H147        H  0.51483356  0.43176294  0.78608094     0.06440
H148        H  0.37972891  0.42978121  0.78157287     0.06280
C149        C  0.53645436  0.18334733  0.53546185     0.03320
C150        C  0.55717203  0.17563635  0.49880936    -0.12830
C151        C  0.53675147  0.17471634  0.46133350     0.00820
C152        C  0.49307058  0.17561038  0.46041300    -0.11360
C153        C  0.46981874  0.18001366  0.49791321     0.03310
C154        C  0.49283290  0.18547277  0.53532373    -0.10780
H155        H  0.59064069  0.17259324  0.49898927     0.08910
H156        H  0.47810963  0.17297179  0.43065701     0.06440
H157        H  0.47765010  0.19234639  0.56430595     0.06280
O158        O  0.61453071  0.21171652  0.78287042    -0.85160
O159        O  0.63350372  0.19071372  0.70532591    -0.82200
C160        C  0.65151029  0.19055399  0.67118020     0.98300
O161        O  0.69095488  0.19257777  0.66917366    -0.82240
O162        O  0.70733907  0.26931941  0.69404954    -0.84880
C163        C  0.71419425  0.30144894  0.71408848     1.02830
O164        O  0.71860567  0.29991860  0.75336321    -0.77640
O165        O  0.64280625  0.27315160  0.77533994    -0.77830
C166        C  0.61152706  0.25120408  0.78032737     1.02780
O167        O  0.68473102  0.15654660  0.80664855    -0.85150
O168        O  0.69775714  0.13179175  0.72922858    -0.82220
C169        C  0.73712482  0.13290706  0.72633278     0.98320
O170        O  0.75606948  0.16648196  0.72645993    -0.82250
O171        O  0.77715997  0.24345671  0.74783875    -0.84850
C172        C  0.78065625  0.24081371  0.78727194     1.02800
O173        O  0.74962364  0.23649982  0.80973745    -0.77670
O174        O  0.67377100  0.21553267  0.83771731    -0.77820
C175        C  0.67908082  0.17636299  0.83917390     1.02760
Cr176      Cr  0.65977729  0.17509905  0.75603960     1.93740
Cr177      Cr  0.73073328  0.21796620  0.71185228     1.93210
Cr178      Cr  0.69617313  0.25395485  0.79168996     1.39100
O179        O  0.69554235  0.21556453  0.75294525    -1.22910
C180        C  0.72690046  0.42708058  0.40872920     0.03320
C181        C  0.72939231  0.46477283  0.38883897    -0.12830
C182        C  0.72425389  0.50155229  0.41005087     0.00820
C183        C  0.72265932  0.50140183  0.45372590    -0.11360
C184        C  0.72566600  0.46348724  0.47635641     0.03310
C185        C  0.72688045  0.42603024  0.45252475    -0.10780
H186        H  0.73286892  0.46548342  0.35538267     0.08910
H187        H  0.71826977  0.53077066  0.46908580     0.06440
H188        H  0.72762315  0.39604550  0.46709949     0.06280
C189        C  0.48721386  0.54894586  0.20297156     0.03320
C190        C  0.48775835  0.50530964  0.20636965    -0.12830
C191        C  0.45016470  0.48244321  0.21166013     0.00820
C192        C  0.41313660  0.50613173  0.21690974    -0.11360
C193        C  0.41362656  0.54981495  0.21398680     0.03310
C194        C  0.45007758  0.56987554  0.20419044    -0.10780
H195        H  0.51739866  0.49011775  0.20460074     0.08910
H196        H  0.38405672  0.49149754  0.22438144     0.06440
H197        H  0.45013307  0.60334950  0.20079062     0.06280
O198        O  0.71623565  0.62938414  0.25039211    -0.85160
O199        O  0.64003938  0.65419740  0.23050713    -0.82200
C200        C  0.60840685  0.67456016  0.22280954     0.98300
O201        O  0.61084105  0.71369058  0.21718159    -0.82240
O202        O  0.63260992  0.73747972  0.29440642    -0.84880
C203        C  0.65277884  0.74262225  0.32690394     1.02830
O204        O  0.69245098  0.74297361  0.32632199    -0.77640
O205        O  0.71357986  0.66500135  0.30832309    -0.77830
C206        C  0.71618984  0.63113725  0.28995837     1.02780
O207        O  0.74519903  0.68723615  0.18709744    -0.85150
O208        O  0.66910706  0.70788812  0.16201184    -0.82220
C209        C  0.67359651  0.74713785  0.15850928     0.98320
O210        O  0.67809096  0.76921368  0.18979019    -0.82250
O211        O  0.69323053  0.79811480  0.26628950    -0.84850
C212        C  0.73260965  0.79890733  0.26363898     1.02800
O213        O  0.75225854  0.76612401  0.26008484    -0.77670
O214        O  0.77662187  0.68899215  0.24731282    -0.77820
C215        C  0.77768717  0.68694813  0.20777573     1.02760
Cr216      Cr  0.69254210  0.67205838  0.20964987     1.93740
Cr217      Cr  0.65586656  0.75221182  0.24195709     1.93210
Cr218      Cr  0.73139951  0.71572388  0.28333355     1.39100
O219        O  0.69321227  0.71298786  0.24529438    -1.22910
C220        C  0.53773876  0.74652787  0.53503036     0.03320
C221        C  0.55683522  0.75597212  0.49780942    -0.12830
C222        C  0.53638320  0.75123257  0.46061486     0.00820
C223        C  0.49298738  0.74658171  0.46039226    -0.11360
C224        C  0.47028259  0.74324369  0.49834226     0.03310
C225        C  0.49425024  0.74062940  0.53552469    -0.10780
H226        H  0.58963566  0.76316447  0.49714578     0.08910
H227        H  0.47809668  0.74506940  0.43059570     0.06440
H228        H  0.47994201  0.73298081  0.56465606     0.06280
C229        C  0.73669425  0.49957422  0.59066892     0.03320
C230        C  0.73392328  0.46244269  0.61137618    -0.12830
C231        C  0.72521334  0.42603105  0.59070545     0.00820
C232        C  0.72227747  0.42573957  0.54703744    -0.11360
C233        C  0.72725870  0.46311363  0.52382016     0.03310
C234        C  0.73366726  0.50034928  0.54707608    -0.10780
H235        H  0.73581720  0.46225164  0.64500279     0.08910
H236        H  0.71524840  0.39661039  0.53218310     0.06440
H237        H  0.73648288  0.53010404  0.53228676     0.06280
C238        C  0.48205218  0.55480878  0.79360730     0.03320
C239        C  0.48330687  0.51110633  0.79065998    -0.12830
C240        C  0.44616694  0.48708700  0.78727875     0.00820
C241        C  0.40813542  0.50980198  0.78585287    -0.11360
C242        C  0.40771740  0.55344048  0.78892082     0.03310
C243        C  0.44447337  0.57492424  0.79238800    -0.10780
H244        H  0.51342525  0.49690024  0.79095843     0.08910
H245        H  0.37862225  0.49470882  0.78235228     0.06440
H246        H  0.44385548  0.60856130  0.79223338     0.06280
O247        O  0.68584085  0.76799653  0.80765379    -0.85160
O248        O  0.69925953  0.79374799  0.73073011    -0.82200
C249        C  0.73870779  0.79315802  0.72746284     0.98300
O250        O  0.75783868  0.75973856  0.72733202    -0.82240
O251        O  0.77983870  0.68323574  0.74845701    -0.84880
C252        C  0.78320754  0.68732042  0.78787988     1.02830
O253        O  0.75185199  0.69134785  0.80994260    -0.77640
O254        O  0.67531021  0.70863040  0.83773044    -0.77830
C255        C  0.68006683  0.74782893  0.83978352     1.02780
O256        O  0.61684198  0.71109898  0.78257757    -0.85150
O257        O  0.63567265  0.73353272  0.70586682    -0.82220
C258        C  0.65344403  0.73510153  0.67169591     0.98320
O259        O  0.69295600  0.73347019  0.66966664    -0.82250
O260        O  0.70978503  0.65662377  0.69421619    -0.84850
C261        C  0.71727687  0.62447099  0.71376394     1.02800
O262        O  0.72361304  0.62632569  0.75277789    -0.77670
O263        O  0.64685048  0.65069485  0.77407857    -0.77820
C264        C  0.61473367  0.67162480  0.77811810     1.02760
Cr265      Cr  0.66151891  0.74939234  0.75673354     1.93740
Cr266      Cr  0.73306319  0.70812419  0.71222240     1.93210
Cr267      Cr  0.69938352  0.67144484  0.79146179     1.39100
O268        O  0.69794871  0.70987009  0.75323160    -1.22910
C269        C  0.35625721  0.74415948  0.53734106     0.03320
C270        C  0.39995985  0.74338194  0.53726216    -0.12830
C271        C  0.42273224  0.74204913  0.49915796     0.00820
C272        C  0.39889510  0.74083379  0.46182111    -0.11360
C273        C  0.35528338  0.74277300  0.46292626     0.03310
C274        C  0.33490621  0.74469538  0.50041166    -0.10780
H275        H  0.41518904  0.74415428  0.56693789     0.08910
H276        H  0.41317057  0.73849585  0.43174061     0.06440
H277        H  0.30127139  0.74509515  0.50090026     0.06280
C278        C  0.15291817  0.49492085  0.59173326     0.03320
C279        C  0.15755078  0.45761603  0.61197332    -0.12830
C280        C  0.16177262  0.42088384  0.59044261     0.00820
C281        C  0.16138078  0.42083788  0.54666055    -0.11360
C282        C  0.15612473  0.45857212  0.52415575     0.03310
C283        C  0.15176744  0.49566040  0.54801407    -0.10780
H284        H  0.15919891  0.45714897  0.64559137     0.08910
H285        H  0.16583924  0.39159890  0.53101969     0.06440
H286        H  0.14707560  0.52528922  0.53344489     0.06280
O287        O  0.19437289  0.73837167  0.66481668    -0.85160
O288        O  0.17659842  0.66118990  0.68803803    -0.82200
C289        C  0.17215000  0.62840451  0.70766938     0.98300
O290        O  0.16866954  0.62939696  0.74707703    -0.82240
O291        O  0.24652155  0.65220594  0.76460143    -0.84880
C292        C  0.27919087  0.67237040  0.76823622     1.02830
O293        O  0.27828325  0.71179673  0.77214588    -0.77640
O294        O  0.25444163  0.73309339  0.69572839    -0.77830
C295        C  0.23379789  0.73625741  0.66339008     1.02780
O296        O  0.13559943  0.76471034  0.72877554    -0.85150
O297        O  0.11210704  0.68759258  0.74764914    -0.82220
C298        C  0.11106140  0.69042243  0.78718926     0.98320
O299        O  0.14368553  0.69337844  0.80738820    -0.82250
O300        O  0.22087591  0.70980726  0.83091422    -0.84850
C301        C  0.21913758  0.74925782  0.83344409     1.02800
O302        O  0.21560296  0.77073497  0.80169299    -0.77670
O303        O  0.19567219  0.79635285  0.72539300    -0.77820
C304        C  0.15609833  0.79726293  0.72624094     1.02760
Cr305      Cr  0.15690515  0.71287135  0.70961390     1.93740
Cr306      Cr  0.19498971  0.67349542  0.78528026     1.93210
Cr307      Cr  0.23367383  0.75076995  0.74865235     1.39100
O308        O  0.19510983  0.71265438  0.74794003    -1.22910
C309        C  0.35505661  0.18296237  0.46242360     0.03320
C310        C  0.39877189  0.18431942  0.46130590    -0.12830
C311        C  0.42248360  0.17937845  0.49830838     0.00820
C312        C  0.39995600  0.17385116  0.53602317    -0.11360
C313        C  0.35634662  0.17253939  0.53625030     0.03310
C314        C  0.33494460  0.17604621  0.49952133    -0.10780
H315        H  0.41344885  0.19013741  0.43184996     0.08910
H316        H  0.41543459  0.17010821  0.56535052     0.06440
H317        H  0.30134850  0.17507520  0.50005786     0.06280
O318        O  0.24666973  0.27196272  0.77491485    -0.85160
O319        O  0.17028365  0.29395010  0.75266377    -0.82200
C320        C  0.17368727  0.29628083  0.71320844     0.98300
O321        O  0.17861132  0.26451547  0.69183978    -0.82240
O322        O  0.19803254  0.18758960  0.66606074    -0.84880
C323        C  0.23723889  0.19221711  0.66516887     1.02830
O324        O  0.25662700  0.19757408  0.69794027    -0.77640
O325        O  0.28016463  0.21298632  0.77528622    -0.77830
C326        C  0.27981231  0.25250653  0.77669120     1.02780
O327        O  0.21867540  0.20938027  0.83436887    -0.85150
O328        O  0.14236400  0.22699597  0.80846033    -0.82220
C329        C  0.11072287  0.23283521  0.78748849     0.98320
O330        O  0.11314081  0.23575124  0.74808650    -0.82250
O331        O  0.13875704  0.15907559  0.72810415    -0.84850
C332        C  0.16021016  0.12726906  0.72455203     1.02800
O333        O  0.19973076  0.12950120  0.72276928    -0.77670
O334        O  0.21948651  0.15052073  0.80010294    -0.77820
C335        C  0.22005894  0.16980906  0.83353863     1.02760
Cr336      Cr  0.19456733  0.24828754  0.79020310     1.93740
Cr337      Cr  0.15939799  0.21176918  0.71094859     1.93210
Cr338      Cr  0.23658593  0.17485078  0.74892112     1.39100
O339        O  0.19681186  0.21147280  0.75035978    -1.22910
C340        C  0.14818291  0.42439539  0.40877544     0.03320
C341        C  0.14995775  0.42276092  0.45254812    -0.12830
C342        C  0.15523280  0.45958906  0.47671124     0.00820
C343        C  0.16008047  0.49753248  0.45448588    -0.11360
C344        C  0.15799151  0.49826383  0.41088332     0.03310
C345        C  0.15162930  0.46209016  0.38900209    -0.10780
H346        H  0.14705217  0.39277869  0.46692334     0.08910
H347        H  0.16633894  0.52643515  0.47013510     0.06440
H348        H  0.15168958  0.46318001  0.35536124     0.06280
O349        O  0.14210936  0.69050981  0.19152197    -0.85160
O350        O  0.21889066  0.70727666  0.16684830    -0.82200
C351        C  0.21971090  0.74686749  0.16660355     0.98300
O352        O  0.21990810  0.76705897  0.19953965    -0.82240
O353        O  0.19900607  0.79024424  0.27637114    -0.84880
C354        C  0.15966709  0.79279976  0.27230230     1.02830
O355        O  0.13824851  0.76092611  0.26878638    -0.77640
O356        O  0.11153501  0.68438705  0.25163616    -0.77830
C357        C  0.10988791  0.68700497  0.21224872     1.02780
O358        O  0.16839541  0.62524902  0.24979731    -0.85150
O359        O  0.24533335  0.64624303  0.22906456    -0.82220
C360        C  0.27873830  0.66513604  0.22589597     0.98320
O361        O  0.27957560  0.70470944  0.22664971    -0.82250
O362        O  0.25477573  0.72259245  0.30392160    -0.84850
C363        C  0.23417519  0.72817318  0.33601111     1.02800
O364        O  0.19511304  0.73339339  0.33388841    -0.77670
O365        O  0.17463869  0.65625966  0.31014458    -0.77820
C366        C  0.17054733  0.62396150  0.28935304     1.02760
Cr367      Cr  0.19382750  0.66962953  0.21165562     1.93740
Cr368      Cr  0.23593729  0.74391672  0.25173465     1.93210
Cr369      Cr  0.15724471  0.70871486  0.28881870     1.39100
O370        O  0.19572771  0.70743873  0.25049827    -1.22910
O371        O  0.11084211  0.23532155  0.25075265    -0.85160
O372        O  0.13581142  0.15870353  0.27005684    -0.82200
C373        C  0.15689401  0.12667255  0.27344423     0.98300
O374        O  0.19645147  0.12849015  0.27418047    -0.82240
O375        O  0.21497756  0.15219349  0.19736250    -0.84880
C376        C  0.21830817  0.17240620  0.16483835     1.02830
O377        O  0.21849045  0.21202574  0.16577779    -0.77640
O378        O  0.14141848  0.22817660  0.19064044    -0.77830
C379        C  0.10913247  0.23156202  0.21132330     1.02780
O380        O  0.17579854  0.26331357  0.30885896    -0.85150
O381        O  0.19495871  0.18687307  0.33299246    -0.82220
C382        C  0.23443687  0.18895664  0.33367093     0.98320
O383        O  0.25431970  0.19387075  0.30104522    -0.82250
O384        O  0.27735502  0.21329821  0.22378108    -0.84850
C385        C  0.27760292  0.25287182  0.22628719     1.02800
O386        O  0.24450926  0.27232977  0.22942422    -0.77670
O387        O  0.16708321  0.29418115  0.24935127    -0.77820
C388        C  0.17110287  0.29574852  0.28879028     1.02760
Cr389      Cr  0.15654225  0.21116738  0.28832549     1.93740
Cr390      Cr  0.23345692  0.17419143  0.24914114     1.93210
Cr391      Cr  0.19290139  0.24947521  0.21101081     1.39100
O392        O  0.19429874  0.21145404  0.24942278    -1.22910
C393        C  0.16309798  0.53535297  0.38496690    -0.05270
C394        C  0.12729636  0.55532999  0.37100154    -0.32700
C395        C  0.12851846  0.58083711  0.33606384     0.36550
C396        C  0.16580485  0.58644311  0.31412688    -0.05630
C397        C  0.20170899  0.56671364  0.32822546    -0.32600
C398        C  0.20048087  0.54110649  0.36316390     0.36450
H399        H  0.09797321  0.54982988  0.38635007     0.16820
O400        O  0.09354437  0.60197861  0.32476923    -0.60100
H401        H  0.23108097  0.57249862  0.31306016     0.16840
O402        O  0.23552060  0.52025814  0.37474898    -0.60200
H403        H  0.24840837  0.53777834  0.39648095     0.43830
H404        H  0.08107872  0.58530496  0.30214399     0.43790
C405        C  0.14993627  0.38783864  0.38109908    -0.05270
C406        C  0.18603363  0.36422618  0.38137590    -0.32700
C407        C  0.19534806  0.33759303  0.34843008     0.36550
C408        C  0.16779615  0.33330069  0.31461941    -0.05630
C409        C  0.13133808  0.35662976  0.31438309    -0.32600
C410        C  0.12246525  0.38403106  0.34714436     0.36450
H411        H  0.20813552  0.36784981  0.40636276     0.16820
O412        O  0.23058007  0.31394456  0.35035444    -0.60100
H413        H  0.10890716  0.35229783  0.28982733     0.16840
O414        O  0.08667137  0.40682404  0.34616231    -0.60200
H415        H  0.09080448  0.42761559  0.32398247     0.43830
H416        H  0.25386517  0.33370540  0.35379166     0.43790
C417        C  0.33033220  0.17356931  0.57387590    -0.05270
C418        C  0.29765852  0.14477024  0.57770361    -0.32700
C419        C  0.26430580  0.15223582  0.60451717     0.36550
C420        C  0.26336309  0.18878782  0.62811245    -0.05630
C421        C  0.29619778  0.21726248  0.62451271    -0.32600
C422        C  0.32948390  0.20980570  0.59795190     0.36450
H423        H  0.29728769  0.11722027  0.55844277     0.16820
O424        O  0.23405462  0.12277171  0.60899604    -0.60100
H425        H  0.29654202  0.24504766  0.64346873     0.16840
O426        O  0.35970104  0.23937019  0.59377704    -0.60200
H427        H  0.38074438  0.23238263  0.61495206     0.43830
H428        H  0.21210296  0.13072448  0.58913430     0.43790
C429        C  0.32753439  0.18771219  0.42619836    -0.05270
C430        C  0.29479104  0.21656788  0.42866793    -0.32700
C431        C  0.26107007  0.21444619  0.40154606     0.36550
C432        C  0.26013787  0.18386747  0.37069053    -0.05630
C433        C  0.29294359  0.15527160  0.36803975    -0.32600
C434        C  0.32633445  0.15696962  0.39548237     0.36450
H435        H  0.29469902  0.23984149  0.45294119     0.16820
O436        O  0.23029404  0.24348869  0.40422186    -0.60100
H437        H  0.29323537  0.13223415  0.34353267     0.16840
O438        O  0.35653706  0.12726020  0.39332258    -0.60200
H439        H  0.37769705  0.13867920  0.37423344     0.43830
H440        H  0.20878173  0.23080422  0.42207190     0.43790
C441        C  0.15402374  0.53225605  0.61844096    -0.05270
C442        C  0.12875333  0.53388937  0.65417042    -0.32700
C443        C  0.13624725  0.56280636  0.68581047     0.36550
C444        C  0.16906947  0.59093956  0.68179211    -0.05630
C445        C  0.19414008  0.58928736  0.64607051    -0.32600
C446        C  0.18671754  0.56055743  0.61456021     0.36450
H447        H  0.10386074  0.51171098  0.65801552     0.16820
O448        O  0.11020022  0.56460660  0.71931103    -0.60100
H449        H  0.21927275  0.61119931  0.64217529     0.16840
O450        O  0.21310101  0.55881288  0.58129076    -0.60200
H451        H  0.20242907  0.57962590  0.56148290     0.43830
H452        H  0.12302400  0.54646249  0.74041842     0.43790
C453        C  0.16913817  0.33419765  0.68890452    -0.05270
C454        C  0.20521663  0.35294938  0.67364847    -0.32700
C455        C  0.20399366  0.37794387  0.63824195     0.36550
C456        C  0.16641447  0.38409360  0.61698856    -0.05630
C457        C  0.13037809  0.36528189  0.63222235    -0.32600
C458        C  0.13159133  0.34041925  0.66768233     0.36450
H459        H  0.23474743  0.34670230  0.68820737     0.16820
O460        O  0.23933866  0.39777462  0.62558282    -0.60100
H461        H  0.10091320  0.37117014  0.61740306     0.16840
O462        O  0.09632359  0.32023993  0.68002792    -0.60200
H463        H  0.08441300  0.33781732  0.70226701     0.43830
H464        H  0.25146261  0.37951762  0.60401671     0.43790
C465        C  0.32805823  0.74009881  0.42640485    -0.05270
C466        C  0.30291962  0.77430461  0.41682246    -0.32700
C467        C  0.26857347  0.76995712  0.39069979     0.36550
C468        C  0.25865906  0.73093511  0.37405147    -0.05630
C469        C  0.28359319  0.69673160  0.38394063    -0.32600
C470        C  0.31789091  0.70105736  0.40998947     0.36450
H471        H  0.30944529  0.80426592  0.43058054     0.16820
O472        O  0.24652300  0.80440446  0.37953398    -0.60100
H473        H  0.27730162  0.66678407  0.37000121     0.16840
O474        O  0.34019729  0.66664325  0.42074860    -0.60200
H475        H  0.36321327  0.66532254  0.40045683     0.43830
H476        H  0.22298637  0.80560197  0.39922169     0.43790
C477        C  0.32973425  0.74227689  0.57449663    -0.05270
C478        C  0.31057557  0.77881861  0.58831654    -0.32700
C479        C  0.27550585  0.77725541  0.61389192     0.36550
C480        C  0.25853984  0.73880954  0.62546243    -0.05630
C481        C  0.27762745  0.70232079  0.61153545    -0.32600
C482        C  0.31272946  0.70384546  0.58613523     0.36450
H483        H  0.32213492  0.80861750  0.57813441     0.16820
O484        O  0.25931543  0.81341836  0.62926584    -0.60100
H485        H  0.26624340  0.67249213  0.62184435     0.16840
O486        O  0.32913878  0.66761296  0.57116428    -0.60200
H487        H  0.35110637  0.66003093  0.59115131     0.43830
H488        H  0.23603620  0.82027015  0.61053822     0.43790
C489        C  0.51884410  0.58217690  0.79273493    -0.05270
C490        C  0.54328896  0.58251704  0.75706575    -0.32700
C491        C  0.57192880  0.61428189  0.75041978     0.36550
C492        C  0.57650724  0.64683594  0.77953460    -0.05630
C493        C  0.55201301  0.64670899  0.81526934    -0.32600
C494        C  0.52315343  0.61480297  0.82190236     0.36450
H495        H  0.53926417  0.55877773  0.73359180     0.16820
O496        O  0.59601717  0.61309845  0.71540135    -0.60100
H497        H  0.55650644  0.67021953  0.83887627     0.16840
O498        O  0.49949366  0.61524260  0.85724336    -0.60200
H499        H  0.48023817  0.63891732  0.85403149     0.43830
H500        H  0.61684413  0.59120770  0.72065615     0.43790
C501        C  0.37045483  0.57971362  0.78559302    -0.05270
C502        C  0.35183690  0.58469916  0.74678917    -0.32700
C503        C  0.32492292  0.61785652  0.73958407     0.36550
C504        C  0.31663140  0.64703518  0.77122621    -0.05630
C505        C  0.33495405  0.64191186  0.81008060    -0.32600
C506        C  0.36168082  0.60860967  0.81739453     0.36450
H507        H  0.35932151  0.56369607  0.72163336     0.16820
O508        O  0.30549885  0.62070804  0.70191767    -0.60100
H509        H  0.32704092  0.66261577  0.83536133     0.16840
O510        O  0.37934024  0.60431302  0.85578562    -0.60200
H511        H  0.40052300  0.62651320  0.85766428     0.43830
H512        H  0.32191866  0.64112434  0.68592534     0.43790
C513        C  0.73508153  0.53640684  0.61772173    -0.05270
C514        C  0.76615327  0.54213906  0.64784656    -0.32700
C515        C  0.75939360  0.56755049  0.68256788     0.36550
C516        C  0.72106252  0.58735076  0.68771517    -0.05630
C517        C  0.69020875  0.58150171  0.65752038    -0.32600
C518        C  0.69696920  0.55649461  0.62288166     0.36450
H519        H  0.79518019  0.52561549  0.64505825     0.16820
O520        O  0.79113188  0.57478653  0.70978457    -0.60100
H521        H  0.66116526  0.59803816  0.65987800     0.16840
O522        O  0.66519267  0.54980312  0.59552759    -0.60200
H523        H  0.66856364  0.57136972  0.57398447     0.43830
H524        H  0.78745192  0.55398443  0.73201511     0.43790
C525        C  0.56571639  0.74118776  0.57148144    -0.05270
C526        C  0.60528524  0.72314501  0.56546882    -0.32700
C527        C  0.63528463  0.72309989  0.59666289     0.36550
C528        C  0.62567827  0.73957603  0.63557357    -0.05630
C529        C  0.58578265  0.75640720  0.64216522    -0.32600
C530        C  0.55618193  0.75756339  0.61062651     0.36450
H531        H  0.61338065  0.70924600  0.53607830     0.16820
O532        O  0.67347510  0.70631575  0.58888548    -0.60100
H533        H  0.57736491  0.76904092  0.67214745     0.16840
O534        O  0.51849199  0.77542057  0.61839670    -0.60200
H535        H  0.52182701  0.80493960  0.61070767     0.43830
H536        H  0.67076747  0.67654324  0.59583915     0.43790
C537        C  0.62761230  0.74891627  0.36425089    -0.05270
C538        C  0.62672718  0.71788441  0.39416631    -0.32700
C539        C  0.59496019  0.71676369  0.42369082     0.36550
C540        C  0.56351125  0.74728916  0.42379225    -0.05630
C541        C  0.56425792  0.77827686  0.39367401    -0.32600
C542        C  0.59577141  0.77898635  0.36380575     0.36450
H543        H  0.64945957  0.69324583  0.39338686     0.16820
O544        O  0.59405455  0.68514233  0.45205492    -0.60100
H545        H  0.54093886  0.80234490  0.39382750     0.16840
O546        O  0.59442651  0.80833044  0.33319606    -0.60200
H547        H  0.61333479  0.83065443  0.34259374     0.43830
H548        H  0.62066036  0.68675412  0.46721153     0.43790
C549        C  0.37721575  0.57687596  0.22075858    -0.05270
C550        C  0.34262168  0.57235879  0.19534508    -0.32700
C551        C  0.31191250  0.60275772  0.19489168     0.36550
C552        C  0.31531037  0.63854139  0.22025515    -0.05630
C553        C  0.34970919  0.64300973  0.24599721    -0.32600
C554        C  0.38032218  0.61234900  0.24671510     0.36450
H555        H  0.34013519  0.54597977  0.17465207     0.16820
O556        O  0.27814560  0.59695488  0.16979633    -0.60100
H557        H  0.35204168  0.66937261  0.26672782     0.16840
O558        O  0.41375571  0.61767607  0.27234380    -0.60200
H559        H  0.40736416  0.60116245  0.29739123     0.43830
H560        H  0.28443689  0.61257233  0.14414956     0.43790
C561        C  0.52375254  0.57625012  0.20584192    -0.05270
C562        C  0.53615623  0.58826315  0.24570950    -0.32700
C563        C  0.55925414  0.62437461  0.25196636     0.36550
C564        C  0.57099364  0.64925125  0.21810147    -0.05630
C565        C  0.55875029  0.63730087  0.17810268    -0.32600
C566        C  0.53497712  0.60133712  0.17190531     0.36450
H567        H  0.52607944  0.57058674  0.27237943     0.16820
O568        O  0.57228446  0.63405383  0.29127116    -0.60100
H569        H  0.56926790  0.65478732  0.15148948     0.16840
O570        O  0.52154151  0.59165811  0.13277708    -0.60200
H571        H  0.54189951  0.57135538  0.12199202     0.43830
H572        H  0.55250201  0.65522691  0.30143919     0.43790
C573        C  0.71911129  0.53849193  0.38359808    -0.05270
C574        C  0.68859873  0.53720673  0.35233697    -0.32700
C575        C  0.68940342  0.56491667  0.31911066     0.36550
C576        C  0.72050870  0.59506945  0.31711973    -0.05630
C577        C  0.75033307  0.59713119  0.34890174    -0.32600
C578        C  0.74991588  0.56902717  0.38182382     0.36450
H579        H  0.66494046  0.51340140  0.35296643     0.16820
O580        O  0.65854838  0.56362806  0.29001306    -0.60100
H581        H  0.77371091  0.62123096  0.34845689     0.16840
O582        O  0.78085633  0.57033056  0.41082131    -0.60200
H583        H  0.77030363  0.58871935  0.43309980     0.43830
H584        H  0.66911745  0.54516891  0.26780268     0.43790
C585        C  0.71906385  0.38991324  0.61791219    -0.05270
C586        C  0.68695783  0.39161095  0.64751891    -0.32700
C587        C  0.68731301  0.36601093  0.68249016     0.36550
C588        C  0.72010937  0.33828630  0.68844392    -0.05630
C589        C  0.75197398  0.33641648  0.65869624    -0.32600
C590        C  0.75157370  0.36184484  0.62370118     0.36450
H591        H  0.66235728  0.41412179  0.64418654     0.16820
O592        O  0.65449579  0.36676288  0.70944453    -0.60100
H593        H  0.77645232  0.31372437  0.66181914     0.16840
O594        O  0.78404974  0.36043090  0.59636430    -0.60200
H595        H  0.77489700  0.34147782  0.57393192     0.43830
H596        H  0.66307342  0.38572689  0.73209049     0.43790
C597        C  0.56283070  0.18899402  0.57264249    -0.05270
C598        C  0.59911922  0.21334048  0.56937751    -0.32700
C599        C  0.62984582  0.21221560  0.59984092     0.36550
C600        C  0.62420126  0.18734756  0.63483714    -0.05630
C601        C  0.58736758  0.16413320  0.63879362    -0.32600
C602        C  0.55703869  0.16458512  0.60799993     0.36450
H603        H  0.60419901  0.23243081  0.54228481     0.16580
O604        O  0.66475595  0.23599936  0.59542341    -0.60100
H605        H  0.58206484  0.14539556  0.66609296     0.16840
O606        O  0.52255781  0.14015566  0.61226210    -0.60200
H607        H  0.52997091  0.11330432  0.59925865     0.43830
H608        H  0.65801781  0.26288182  0.60873914     0.43790
C609        C  0.37413381  0.34446232  0.77765514    -0.05270
C610        C  0.37471042  0.31243525  0.74771077    -0.32700
C611        C  0.34669185  0.27942636  0.74948911     0.36550
C612        C  0.31682358  0.27846663  0.78091923    -0.05630
C613        C  0.31571860  0.31075897  0.81039541    -0.32600
C614        C  0.34410505  0.34348120  0.80900305     0.36450
H615        H  0.39802844  0.31244502  0.72355291     0.16820
O616        O  0.34720103  0.24969805  0.71905306    -0.60100
H617        H  0.29189430  0.31107741  0.83405625     0.16840
O618        O  0.34343451  0.37320406  0.83943265    -0.60200
H619        H  0.32329607  0.39417147  0.82972923     0.43830
H620        H  0.36508559  0.22733306  0.72996635     0.43790
C621        C  0.52215319  0.34606191  0.78241737    -0.05270
C622        C  0.52751379  0.32139209  0.74676354    -0.32700
C623        C  0.55251931  0.28605882  0.74743289     0.36550
C624        C  0.57304226  0.27474963  0.78401297    -0.05630
C625        C  0.56789821  0.29947381  0.81963982    -0.32600
C626        C  0.54248598  0.33466843  0.81909817     0.36450
H627        H  0.51079659  0.32878163  0.71866118     0.16820
O628        O  0.55890569  0.26428701  0.71142403    -0.60100
H629        H  0.58524497  0.29248758  0.84746239     0.16840
O630        O  0.53646070  0.35679957  0.85491773    -0.60200
H631        H  0.55652159  0.38001791  0.85351840     0.43830
H632        H  0.53964602  0.24040316  0.71287517     0.43790
C633        C  0.72683302  0.32815343  0.31954880    -0.05270
C634        C  0.69780262  0.35987441  0.31664127    -0.32700
C635        C  0.69575844  0.39058651  0.34727899     0.36550
C636        C  0.72364811  0.39026465  0.38125612    -0.05630
C637        C  0.75246980  0.35822978  0.38426656    -0.32600
C638        C  0.75404805  0.32723619  0.35389759     0.36450
H639        H  0.67530830  0.35972491  0.29176502     0.16820
O640        O  0.66553137  0.42032656  0.34460483    -0.60100
H641        H  0.77439411  0.35775195  0.40962050     0.16840
O642        O  0.78165610  0.29535892  0.35858611    -0.60200
H643        H  0.80591310  0.30311480  0.34144654     0.43830
H644        H  0.67231361  0.43681992  0.31961442     0.43790
C645        C  0.63590465  0.17583137  0.37433543    -0.05270
C646        C  0.61050490  0.14049258  0.37777507    -0.32700
C647        C  0.57518713  0.14067325  0.40309508     0.36550
C648        C  0.56436449  0.17675013  0.42491378    -0.05630
C649        C  0.58966837  0.21211834  0.42116960    -0.32600
C650        C  0.62520091  0.21172857  0.39643698     0.36450
H651        H  0.61713528  0.11325104  0.35922743     0.16820
O652        O  0.55228068  0.10516540  0.40735676    -0.60100
H653        H  0.58257462  0.23974904  0.43895783     0.16840
O654        O  0.64772313  0.24746443  0.39183461    -0.60200
H655        H  0.67115038  0.24483112  0.41144928     0.43830
H656        H  0.52945223  0.10781477  0.38704528     0.43790
C657        C  0.37305419  0.34278573  0.20815913    -0.05270
C658        C  0.34752914  0.34457132  0.24302878    -0.32700
C659        C  0.31852478  0.31333548  0.25056189     0.36550
C660        C  0.31483976  0.27907814  0.22339893    -0.05630
C661        C  0.33996875  0.27740558  0.18814352    -0.32600
C662        C  0.36895842  0.30892614  0.18041618     0.36450
H663        H  0.35122807  0.36937498  0.26543205     0.16820
O664        O  0.29371354  0.31637067  0.28488444    -0.60100
H665        H  0.33611865  0.25254560  0.16584617     0.16840
O666        O  0.39334094  0.30663861  0.14563785    -0.60200
H667        H  0.41288573  0.28355456  0.15070765     0.43830
H668        H  0.27229411  0.33705604  0.27754452     0.43790
C669        C  0.52130240  0.33931035  0.21839718    -0.05270
C670        C  0.52703300  0.30863174  0.18767154    -0.32700
C671        C  0.55288199  0.27453553  0.19440593     0.36550
C672        C  0.57400707  0.27079435  0.23211702    -0.05630
C673        C  0.56827712  0.30140738  0.26284811    -0.32600
C674        C  0.54215127  0.33532879  0.25626758     0.36450
H675        H  0.51024088  0.31060622  0.15870418     0.16820
O676        O  0.55945201  0.24665049  0.16295635    -0.60100
H677        H  0.58554550  0.29976767  0.29156920     0.16840
O678        O  0.53585848  0.36339790  0.28761024    -0.60200
H679        H  0.55773278  0.38463445  0.28391180     0.43830
H680        H  0.53937396  0.22396836  0.16799001     0.43790
C681        C  0.13540966  0.83116004  0.27382235    -0.05270
C682        C  0.10498995  0.83596135  0.24300183    -0.32700
C683        C  0.07100994  0.86201800  0.24899959     0.36550
C684        C  0.06703067  0.88441226  0.28609988    -0.05630
C685        C  0.09770699  0.88005086  0.31684756    -0.32600
C686        C  0.13162693  0.85360375  0.31093516     0.36450
H687        H  0.10667575  0.81776530  0.21475454     0.16820
O688        O  0.04293412  0.86697693  0.21758720    -0.60100
H689        H  0.09584164  0.89824621  0.34505412     0.16840
O690        O  0.15937510  0.84798830  0.34250262    -0.60200
H691        H  0.18237719  0.86743224  0.33654016     0.43830
H692        H  0.02158952  0.84542547  0.22239151     0.43790
C693        C  0.13253279  0.08869703  0.27829107    -0.05270
C694        C  0.12800048  0.06212497  0.24431437    -0.32700
C695        C  0.09510784  0.03381962  0.24280091     0.36550
C696        C  0.06579832  0.03218983  0.27534223    -0.05630
C697        C  0.07025817  0.05893847  0.30917834    -0.32600
C698        C  0.10317478  0.08707643  0.31074025     0.36450
H699        H  0.14884947  0.06457421  0.21811466     0.16820
O700        O  0.09159677  0.00768293  0.20936681    -0.60100
H701        H  0.04895461  0.05706134  0.33505203     0.16840
O702        O  0.10542898  0.11440030  0.34330423    -0.60200
H703        H  0.12505136  0.10169127  0.36311158     0.43830
H704        H  0.11311567  0.98621021  0.21341203     0.43790
C705        C  0.76499811  0.83023784  0.72344386    -0.05270
C706        C  0.80050437  0.82745409  0.69800200    -0.32700
C707        C  0.83157591  0.85766510  0.69922462     0.36550
C708        C  0.82786894  0.89126040  0.72656782    -0.05630
C709        C  0.79263644  0.89351967  0.75259780    -0.32600
C710        C  0.76120674  0.86371656  0.75078212     0.36450
H711        H  0.80445777  0.80117460  0.67739973     0.16820
O712        O  0.86496302  0.85431678  0.67318667    -0.60100
H713        H  0.78909702  0.91918823  0.77399212     0.16840
O714        O  0.72767328  0.86696537  0.77666376    -0.60200
H715        H  0.73599676  0.85284452  0.80257931     0.43830
H716        H  0.85682793  0.86916545  0.64762878     0.43790
C717        C  0.82970382  0.03968012  0.72698459    -0.05270
C718        C  0.82609539  0.06619350  0.69304259    -0.32700
C719        C  0.79337246  0.09443090  0.69090540     0.36550
C720        C  0.76335966  0.09613012  0.72275733    -0.05630
C721        C  0.76708961  0.06986614  0.75681933    -0.32600
C722        C  0.79992129  0.04174933  0.75908665     0.36450
H723        H  0.84783275  0.06401263  0.66755232     0.16820
O724        O  0.79152522  0.12123206  0.65806552    -0.60100
H725        H  0.74557502  0.07233110  0.78249083     0.16840
O726        O  0.80285877  0.01608111  0.79277276    -0.60200
H727        H  0.77993210  0.99586254  0.78974034     0.43830
H728        H  0.77222744  0.10810838  0.63808436     0.43790
C729        C  0.06428067  0.89091687  0.72935351    -0.05270
C730        C  0.06721434  0.86427265  0.69527890    -0.32700
C731        C  0.10014623  0.83638560  0.69200088     0.36550
C732        C  0.13104087  0.83489342  0.72294580    -0.05630
C733        C  0.12805415  0.86133914  0.75716027    -0.32600
C734        C  0.09510562  0.88933277  0.76044413     0.36450
H735        H  0.04471404  0.86607394  0.67049431     0.16820
O736        O  0.10101767  0.80924286  0.65921674    -0.60100
H737        H  0.15017097  0.85900144  0.78224928     0.16840
O738        O  0.09300466  0.91522658  0.79420137    -0.60200
H739        H  0.11501876  0.93621870  0.78990302     0.43830
H740        H  0.12001542  0.82196896  0.63873888     0.43790
C741        C  0.06456249  0.03867898  0.72316766    -0.05270
C742        C  0.08822187  0.04499801  0.75919605    -0.32700
C743        C  0.12371026  0.06981041  0.75857230     0.36550
C744        C  0.13619808  0.08899295  0.72161351    -0.05630
C745        C  0.11252255  0.08279702  0.68557076    -0.32600
C746        C  0.07714218  0.05762854  0.68610382     0.36450
H747        H  0.07988219  0.02924386  0.78761293     0.16820
O748        O  0.14448124  0.07735599  0.79486517    -0.60100
H749        H  0.12048658  0.09912620  0.65737422     0.16840
O750        O  0.05594792  0.05050404  0.64999999    -0.60200
H751        H  0.03291063  0.07075055  0.65023258     0.43830
H752        H  0.16791345  0.05757200  0.79485683     0.43790
C753        C  0.83088638  0.88303475  0.28333213    -0.05270
C754        C  0.80184771  0.87565129  0.31508011    -0.32700
C755        C  0.76604569  0.85224547  0.30761691     0.36550
C756        C  0.75869150  0.83575783  0.26797402    -0.05630
C757        C  0.78783699  0.84289692  0.23639677    -0.32600
C758        C  0.82358961  0.86621162  0.24381429     0.36450
H759        H  0.80619128  0.88969711  0.34530219     0.16820
O760        O  0.73977943  0.84351879  0.33983586    -0.60100
H761        H  0.78363353  0.82871767  0.20619508     0.16840
O762        O  0.85004186  0.87442743  0.21162085    -0.60200
H763        H  0.87106578  0.85212073  0.21260833     0.43830
H764        H  0.71736314  0.86434159  0.33782085     0.43790
C765        C  0.83047386  0.02995601  0.27649461    -0.05270
C766        C  0.82667900  0.05855520  0.30881905    -0.32700
C767        C  0.79350847  0.08629056  0.30968207     0.36550
C768        C  0.76326058  0.08557931  0.27807548    -0.05630
C769        C  0.76715045  0.05724820  0.24553322    -0.32600
C770        C  0.80033731  0.02940357  0.24466744     0.36450
H771        H  0.84869359  0.05846443  0.33410676     0.16820
O772        O  0.79175130  0.11538638  0.34070984    -0.60100
H773        H  0.74550667  0.05786343  0.21992441     0.16840
O774        O  0.80331393  0.00151782  0.21260283    -0.60200
H775        H  0.78154195  0.98050031  0.21789168     0.43830
H776        H  0.77236536  0.10381884  0.36150970     0.43790
C777        C  0.81666954  0.23438085  0.18422507    -0.05270
C778        C  0.81873520  0.20740138  0.14990922    -0.32700
C779        C  0.84596465  0.21464422  0.11701044     0.36550
C780        C  0.87204547  0.24939842  0.11792574    -0.05630
C781        C  0.86945256  0.27688932  0.15204506    -0.32600
C782        C  0.84237762  0.26934329  0.18515314     0.36450
H783        H  0.79825540  0.18091812  0.14827612     0.16820
O784        O  0.84840868  0.18638251  0.08530012    -0.60100
H785        H  0.88974011  0.30359887  0.15362706     0.16840
O786        O  0.83978241  0.29735788  0.21706071    -0.60200
H787        H  0.85908426  0.28694704  0.23847758     0.43830
H788        H  0.82609146  0.19421832  0.06579506     0.43790
C789        C  0.02037272  0.24700129  0.11635583    -0.05270
C790        C  0.03743685  0.20791237  0.12390890    -0.32700
C791        C  0.06286724  0.20139537  0.15837288     0.36550
C792        C  0.07139552  0.23407972  0.18631238    -0.05630
C793        C  0.05434981  0.27316467  0.17880151    -0.32600
C794        C  0.02911163  0.27975840  0.14417922     0.36450
H795        H  0.02974066  0.18201265  0.10390654     0.16820
O796        O  0.08097988  0.16334682  0.16354029    -0.60100
H797        H  0.06230361  0.29911993  0.19863541     0.16840
O798        O  0.01160372  0.31799541  0.13856153    -0.60200
H799        H  0.02979601  0.33222405  0.11834404     0.43830
H800        H  0.06373807  0.14901922  0.18451128     0.43790
C801        C  0.87358370  0.67059686  0.88091049    -0.05270
C802        C  0.86720682  0.63948273  0.85076136    -0.32700
C803        C  0.84160882  0.64630690  0.81640081     0.36550
C804        C  0.82178062  0.68463706  0.81165416    -0.05630
C805        C  0.82846223  0.71577832  0.84160270    -0.32600
C806        C  0.85385565  0.70896062  0.87597171     0.36450
H807        H  0.88328077  0.61017528  0.85334184     0.16820
O808        O  0.83404786  0.61449087  0.78921121    -0.60100
H809        H  0.81206775  0.74496247  0.83935325     0.16840
O810        O  0.86072410  0.74064361  0.90352944    -0.60200
H811        H  0.83885991  0.73761845  0.92488656     0.43830
H812        H  0.85412379  0.61852897  0.76632455     0.43790
C813        C  0.02129502  0.67272859  0.88140125    -0.05270
C814        C  0.02772333  0.64190776  0.85097870    -0.32700
C815        C  0.05340055  0.64907544  0.81676898     0.36550
C816        C  0.07366250  0.68728137  0.81270682    -0.05630
C817        C  0.06777356  0.71784611  0.84337609    -0.32600
C818        C  0.04181942  0.71086645  0.87739477     0.36450
H819        H  0.01138899  0.61265044  0.85307746     0.16820
O820        O  0.06049285  0.61770742  0.78892899    -0.60100
H821        H  0.08464555  0.74683764  0.84160407     0.16840
O822        O  0.03511077  0.74219907  0.90538087    -0.60200
H823        H  0.05758147  0.73949111  0.92608031     0.43830
H824        H  0.04044595  0.62239232  0.76620163     0.43790
C825        C  0.22327971  0.14351925  0.87029734    -0.05270
C826        C  0.25592024  0.11466815  0.87157323    -0.32700
C827        C  0.25473549  0.08076763  0.89849093     0.36550
C828        C  0.22033673  0.07496587  0.92434226    -0.05630
C829        C  0.18728670  0.10338251  0.92238298    -0.32600
C830        C  0.18871961  0.13753466  0.89584501     0.36450
H831        H  0.28200756  0.11795437  0.85070465     0.16820
O832        O  0.28810249  0.05470220  0.90073360    -0.60100
H833        H  0.16099748  0.09990915  0.94296012     0.16840
O834        O  0.15531242  0.16355235  0.89348493    -0.60200
H835        H  0.16153782  0.18649187  0.91301106     0.43830
H836        H  0.28161643  0.03161814  0.88146262     0.43790
C837        C  0.21890707  0.07903256  0.07209305    -0.05270
C838        C  0.25214561  0.08271172  0.09950536    -0.32700
C839        C  0.25434026  0.11619809  0.12709741     0.36550
C840        C  0.22320132  0.14697823  0.12742374    -0.05630
C841        C  0.18993803  0.14331951  0.10008595    -0.32600
C842        C  0.18767896  0.10979579  0.07248577     0.36450
H843        H  0.27700153  0.06024149  0.09871169     0.16820
O844        O  0.28611574  0.11763365  0.15521455    -0.60100
H845        H  0.16465060  0.16528848  0.10152267     0.16840
O846        O  0.15465376  0.10697395  0.04591248    -0.60200
H847        H  0.15910853  0.12894958  0.02496403     0.43830
H848        H  0.30689239  0.13660689  0.14294769     0.43790
C849        C  0.65952211  0.84477571  0.92544800    -0.05270
C850        C  0.62767827  0.81625398  0.91662451    -0.32700
C851        C  0.63526676  0.78079437  0.89266146     0.36550
C852        C  0.67514798  0.77328474  0.87706459    -0.05630
C853        C  0.70690974  0.80182553  0.88583189    -0.32600
C854        C  0.69936557  0.83722286  0.90975503     0.36450
H855        H  0.59718692  0.82076884  0.92986499     0.16820
O856        O  0.60297810  0.75514709  0.88242160    -0.60100
H857        H  0.73738992  0.79746405  0.87246432     0.16840
O858        O  0.73162544  0.86307642  0.91955669    -0.60200
H859        H  0.73139481  0.88476291  0.89787914     0.43830
H860        H  0.60390008  0.73244245  0.90300463     0.43790
C861        C  0.65870574  0.84352296  0.07259009    -0.05270
C862        C  0.69844072  0.83160473  0.08511994    -0.32700
C863        C  0.70433805  0.79573889  0.10866624     0.36550
C864        C  0.67029568  0.77079322  0.12003917    -0.05630
C865        C  0.63061614  0.78238082  0.10703034    -0.32600
C866        C  0.62471380  0.81830352  0.08347800     0.36450
H867        H  0.72514300  0.84940448  0.07531984     0.16820
O868        O  0.74328260  0.78666642  0.12284586    -0.60100
H869        H  0.60386193  0.76488880  0.11724239     0.16840
O870        O  0.58572745  0.82781566  0.06980431    -0.60200
H871        H  0.57496833  0.84835783  0.08999849     0.43830
H872        H  0.75384476  0.76486060  0.10391244     0.43790
C873        C  0.87014211  0.24380689  0.88171808    -0.05270
C874        C  0.86268179  0.20702859  0.85945115    -0.32700
C875        C  0.83771985  0.20689516  0.82407562     0.36550
C876        C  0.81950958  0.24384739  0.81023213    -0.05630
C877        C  0.82695582  0.28066516  0.83242859    -0.32600
C878        C  0.85225994  0.28086660  0.86770987     0.36450
H879        H  0.87763469  0.17852563  0.86878532     0.16820
O880        O  0.82898819  0.16996512  0.80480986    -0.60100
H881        H  0.81137914  0.30896948  0.82352362     0.16840
O882        O  0.86055145  0.31762903  0.88742008    -0.60200
H883        H  0.84048447  0.31904049  0.91063966     0.43830
H884        H  0.84818910  0.16856955  0.78086804     0.43790
C885        C  0.01785684  0.23660205  0.88010630    -0.05270
C886        C  0.01790682  0.20460376  0.85017453    -0.32700
C887        C  0.04499416  0.20545428  0.81629975     0.36550
C888        C  0.07291427  0.23840092  0.81195529    -0.05630
C889        C  0.07312867  0.27019112  0.84198167    -0.32600
C890        C  0.04588961  0.26949978  0.87575662     0.36450
H891        H  0.99579774  0.17944953  0.85253001     0.16820
O892        O  0.04565179  0.17277429  0.78906019    -0.60100
H893        H  0.09581171  0.29487424  0.84004120     0.16840
O894        O  0.04576979  0.30188489  0.90334123    -0.60200
H895        H  0.06550813  0.29377957  0.92535645     0.43830
H896        H  0.02765189  0.18133212  0.76576378     0.43790
C897        C  0.87249453  0.68791251  0.11660978    -0.05270
C898        C  0.87014581  0.71996479  0.14637398    -0.32700
C899        C  0.84221048  0.71792541  0.17949398     0.36550
C900        C  0.81567365  0.68374121  0.18310482    -0.05630
C901        C  0.81769701  0.65193957  0.15319416    -0.32600
C902        C  0.84584792  0.65377868  0.12026445     0.36450
H903        H  0.89108105  0.74614444  0.14449340     0.16820
O904        O  0.83931511  0.75060330  0.20658773    -0.60100
H905        H  0.79628501  0.62611742  0.15471942     0.16840
O906        O  0.84836756  0.62124094  0.09297696    -0.60200
H907        H  0.82828330  0.62778324  0.07075230     0.43830
H908        H  0.85775068  0.74336217  0.22998989     0.43790
C909        C  0.07200371  0.68428349  0.18769726    -0.05270
C910        C  0.05511284  0.72136328  0.17304140    -0.32700
C911        C  0.02968724  0.72158326  0.13800820     0.36550
C912        C  0.02083864  0.68436722  0.11675215    -0.05630
C913        C  0.03769624  0.64722339  0.13141634    -0.32600
C914        C  0.06339668  0.64708144  0.16637615     0.36450
H915        H  0.06319995  0.75050926  0.18772428     0.16820
O916        O  0.01205772  0.75812500  0.12566105    -0.60100
H917        H  0.02985253  0.61815660  0.11648377     0.16840
O918        O  0.08181448  0.61076119  0.17823250    -0.60200
H919        H  0.06459092  0.60022102  0.20135769     0.43830
H920        H  0.03087743  0.76918112  0.10407500     0.43790
C921        C  0.67469615  0.15054778  0.87631093    -0.05270
C922        C  0.70458725  0.11948554  0.88266542    -0.32700
C923        C  0.69640762  0.08529309  0.90799983     0.36550
C924        C  0.65771549  0.08143966  0.92745224    -0.05630
C925        C  0.62765996  0.11236381  0.92073963    -0.32600
C926        C  0.63600791  0.14674830  0.89568416     0.36450
H927        H  0.73401316  0.12107964  0.86658644     0.16820
O928        O  0.72709463  0.05693042  0.91515613    -0.60100
H929        H  0.59800741  0.11045776  0.93632492     0.16840
O930        O  0.60527393  0.17496672  0.88817567    -0.60200
H931        H  0.60976980  0.19744179  0.90869235     0.43830
H932        H  0.72434994  0.03619663  0.89259216     0.43790
C933        C  0.65261505  0.07960086  0.07524308    -0.05270
C934        C  0.69152319  0.08383794  0.09360620    -0.32700
C935        C  0.70008642  0.11733809  0.11980397     0.36550
C936        C  0.66940045  0.14725332  0.12853030    -0.05630
C937        C  0.63039278  0.14314564  0.11015225    -0.32600
C938        C  0.62193143  0.10969777  0.08360878     0.36450
H939        H  0.71595672  0.06207499  0.08619536     0.16820
O940        O  0.73810355  0.11969931  0.13854026    -0.60100
H941        H  0.60588353  0.16466515  0.11798865     0.16840
O942        O  0.58396058  0.10724107  0.06484855    -0.60200
H943        H  0.56760389  0.08797534  0.08226001     0.43830
H944        H  0.75762572  0.12758451  0.11618879     0.43790
C945        C  0.22212100  0.77285946  0.87213178    -0.05270
C946        C  0.18611267  0.77872873  0.89548563    -0.32700
C947        C  0.18311339  0.81185779  0.92340167     0.36550
C948        C  0.21645272  0.83981473  0.92839547    -0.05630
C949        C  0.25255317  0.83380183  0.90517390    -0.32600
C950        C  0.25542962  0.80077439  0.87707308     0.36450
H951        H  0.15948976  0.75887828  0.89051093     0.16820
O952        O  0.14775960  0.81624615  0.94653746    -0.60100
H953        H  0.27891401  0.85409079  0.90964378     0.16840
O954        O  0.29022035  0.79708888  0.85297052    -0.60200
H955        H  0.30755653  0.77613572  0.86708871     0.43830
H956        H  0.13045393  0.83617770  0.93098232     0.43790
C957        C  0.21838037  0.84251717  0.07702339    -0.05270
C958        C  0.18227350  0.81959672  0.08532452    -0.32700
C959        C  0.18328708  0.78484833  0.11116023     0.36550
C960        C  0.22081124  0.77219682  0.12903173    -0.05630
C961        C  0.25682809  0.79534190  0.12111837    -0.32600
C962        C  0.25586494  0.83001281  0.09510455     0.36450
H963        H  0.15344572  0.82790680  0.07041668     0.16820
O964        O  0.14703809  0.76485263  0.12065790    -0.60100
H965        H  0.28555814  0.78723416  0.13632767     0.16840
O966        O  0.29201515  0.85032613  0.08599460    -0.60200
H967        H  0.29310882  0.87398889  0.10562121     0.43830
H968        H  0.14543642  0.74125091  0.10099551     0.43790
loop_ 
_geom_bond_atom_site_label_1 
_geom_bond_atom_site_label_2 
_geom_bond_distance 
_geom_bond_site_symmetry_2 
_ccdc_geom_bond_type 
C1            C2   1.379   1_556  A
C1            C6   1.412       .  A
C1          C948   1.478       .  S
C2            C3   1.379       .  A
C2            H7   1.087       .  S
C3            C4   1.413       .  A
C3          C957   1.476       .  S
C4            C5   1.433       .  A
C4            H8   1.077       .  S
C5            C6   1.433   1_554  A
C5           C48   1.540       .  S
C6            H9   1.077       .  S
C10          C11   1.380   1_556  A
C10          C15   1.416       .  A
C10         C924   1.483       .  S
C11          C12   1.378       .  A
C11          H16   1.087       .  S
C12          C13   1.412       .  A
C12         C933   1.477       .  S
C13          C14   1.431   1_545  A
C13          H17   1.077   1_545  S
C14          C15   1.434   1_564  A
C14          C39   1.540   1_554  S
C15          H18   1.077   1_545  S
C19          C20   1.380       .  A
C19          C24   1.414       .  A
C19         C897   1.481       .  S
C20          C21   1.377       .  A
C20          H25   1.087       .  S
C21          C22   1.411       .  A
C21         C912   1.475   1_655  S
C22          C23   1.433       .  A
C22          H26   1.077   1_655  S
C23          C24   1.433       .  A
C23          C57   1.540   1_554  S
C24          H27   1.077       .  S
C28          C29   1.378       .  A
C28          C33   1.415       .  A
C28         C885   1.481   1_655  S
C29          C30   1.377       .  A
C29          H34   1.087       .  S
C30          C31   1.412       .  A
C30         C873   1.476       .  S
C31          C32   1.435       .  A
C31          H35   1.077       .  S
C32          C33   1.435       .  A
C32          C66   1.542   1_556  S
C33          H36   1.077   1_655  S
C37          C38   1.413       .  A
C37          C42   1.376   1_554  A
C37         C861   1.476       .  S
C38          C39   1.435   1_554  A
C38          H43   1.077       .  S
C39          C40   1.433       .  A
C40          C41   1.413       .  A
C40          H44   1.077       .  S
C41          C42   1.377       .  A
C41         C849   1.475       .  S
C42          H45   1.088       .  S
C46          C47   1.414       .  A
C46          C51   1.377   1_554  A
C46         C837   1.480       .  S
C47          C48   1.435   1_545  A
C47          H52   1.077   1_545  S
C48          C49   1.434   1_564  A
C49          C50   1.411       .  A
C49          H53   1.076   1_545  S
C50          C51   1.377       .  A
C50         C828   1.477       .  S
C51          H54   1.087       .  S
C55          C56   1.414       .  A
C55          C60   1.379       .  A
C55         C801   1.481       .  S
C56          C57   1.433       .  A
C56          H61   1.077       .  S
C57          C58   1.432       .  A
C58          C59   1.413       .  A
C58          H62   1.077   1_655  S
C59          C60   1.380       .  A
C59         C813   1.481   1_655  S
C60          H63   1.087       .  S
C64          C65   1.416       .  A
C64          C69   1.380       .  A
C64         C780   1.485       .  S
C65          C66   1.434       .  A
C65          H70   1.076       .  S
C66          C67   1.434       .  A
C67          C68   1.413       .  A
C67          H71   1.077   1_655  S
C68          C69   1.378       .  A
C68         C789   1.478   1_655  S
C69          H72   1.087       .  S
C73          C74   1.377       .  A
C73          C78   1.411       .  A
C73         C765   1.476   1_565  S
C74          C75   1.377       .  A
C74          H79   1.087       .  S
C75          C76   1.414       .  A
C75         C753   1.476       .  S
C76          C77   1.434       .  A
C76          H80   1.077       .  S
C77          C78   1.433       .  A
C77         C102   1.539       .  S
C78          H81   1.077   1_565  S
C82          C83   1.378       .  A
C82          C87   1.413   1_455  A
C82         C729   1.478       .  S
C83          C84   1.376   1_565  A
C83          H88   1.087       .  S
C84          C85   1.411   1_455  A
C84         C741   1.474       .  S
C85          C86   1.434   1_545  A
C85          H89   1.077       .  S
C86          C87   1.433       .  A
C86          C93   1.538       .  S
C87          H90   1.077       .  S
C91          C92   1.409       .  A
C91          C96   1.377   1_545  A
C91         C717   1.476       .  S
C92          C93   1.431   1_545  A
C92          H97   1.077       .  S
C93          C94   1.434       .  A
C94          C95   1.416       .  A
C94          H98   1.077       .  S
C95          C96   1.381       .  A
C95         C708   1.488       .  S
C96          H99   1.086       .  S
C100        C101   1.414   1_455  A
C100        C105   1.378       .  A
C100        C684   1.478       .  S
C101        C102   1.433       .  A
C101        H106   1.077       .  S
C102        C103   1.433       .  A
C103        C104   1.412   1_655  A
C103        H107   1.077   1_565  S
C104        C105   1.378       .  A
C104        C696   1.477   1_565  S
C105        H108   1.087       .  S
C109        C110   1.379       .  A
C109        C114   1.413       .  A
C109        C657   1.481       .  S
C110        C111   1.380       .  A
C110        H115   1.086       .  S
C111        C112   1.415       .  A
C111        C669   1.481       .  S
C112        C113   1.432       .  A
C112        H116   1.079       .  S
C113        C114   1.431       .  A
C113        C191   1.535       .  S
C114        H117   1.079       .  S
O118       Cr136   1.915       .  S
O118        C126   1.243       .  A
O119       Cr136   2.059       .  S
O119        C120   1.277       .  A
C120        C768   1.463       .  S
C120        O121   1.242       .  A
O121       Cr137   1.915       .  S
O122       Cr137   2.066       .  S
O122        C123   1.280       .  A
C123        C777   1.471       .  S
C123        O124   1.246       .  A
O124       Cr138   1.917       .  S
O125       Cr138   2.070       .  S
O125        C126   1.279       .  A
C126        C936   1.468       .  S
O127       Cr136   2.071       .  S
O127        C135   1.281       .  A
O128       Cr136   1.909       .  S
O128        C129   1.245       .  A
C129        C645   1.463       .  S
C129        O130   1.281       .  A
O130       Cr137   2.067       .  S
O131       Cr137   1.915       .  S
O131        C132   1.244       .  A
C132        C633   1.468       .  S
C132        O133   1.278       .  A
O133       Cr138   2.059       .  S
O134       Cr138   1.917       .  S
O134        C135   1.244       .  A
C135        C672   1.469       .  S
Cr136       O139   1.751       .  S
Cr137       O139   1.747       .  S
Cr138       O139   1.747       .  S
C140        C141   1.379       .  A
C140        C145   1.413       .  A
C140        C609   1.481       .  S
C141        C142   1.377       .  A
C141        H146   1.087       .  S
C142        C143   1.413       .  A
C142        C621   1.478       .  S
C143        C144   1.435       .  A
C143        H147   1.077       .  S
C144        C145   1.433       .  A
C144        C240   1.541       .  S
C145        H148   1.076       .  S
C149        C150   1.381       .  A
C149        C154   1.412       .  A
C149        C597   1.484       .  S
C150        C151   1.379       .  A
C150        H155   1.087       .  S
C151        C152   1.413       .  A
C151        C648   1.477       .  S
C152        C153   1.431       .  A
C152        H156   1.079       .  S
C153        C154   1.430       .  A
C153        C311   1.530       .  S
C154        H157   1.079       .  S
O158       Cr176   2.070       .  S
O158        C166   1.282       .  A
O159       Cr176   1.915       .  S
O159        C160   1.246       .  A
C160        C600   1.472       .  S
C160        O161   1.278       .  A
O161       Cr177   2.054       .  S
O162       Cr177   1.914       .  S
O162        C163   1.241       .  A
C163        C588   1.464       .  S
C163        O164   1.277       .  A
O164       Cr178   2.065       .  S
O165       Cr178   1.910       .  S
O165        C166   1.245       .  A
C166        C624   1.463       .  S
O167       Cr176   1.921       .  S
O167        C175   1.241       .  A
O168       Cr176   2.051       .  S
O168        C169   1.276       .  A
C169        C720   1.464       .  S
C169        O170   1.244       .  A
O170       Cr177   1.915       .  S
O171       Cr177   2.067       .  S
O171        C172   1.281       .  A
C172        C876   1.462       .  S
C172        O173   1.245       .  A
O173       Cr178   1.911       .  S
O174       Cr178   2.068       .  S
O174        C175   1.278       .  A
C175        C921   1.469       .  S
Cr176       O179   1.746       .  S
Cr177       O179   1.748       .  S
Cr178       O179   1.758       .  S
C180        C181   1.380       .  A
C180        C185   1.414       .  A
C180        C636   1.484       .  S
C181        C182   1.379       .  A
C181        H186   1.086       .  S
C182        C183   1.411       .  A
C182        C573   1.479       .  S
C183        C184   1.431       .  A
C183        H187   1.078       .  S
C184        C185   1.432       .  A
C184        C233   1.533       .  S
C185        H188   1.078       .  S
C189        C190   1.414       .  A
C189        C194   1.379       .  A
C189        C561   1.476       .  S
C190        C191   1.431       .  A
C190        H195   1.078       .  S
C191        C192   1.431       .  A
C192        C193   1.414       .  A
C192        H196   1.079       .  S
C193        C194   1.381       .  A
C193        C549   1.483       .  S
C194        H197   1.087       .  S
O198       Cr216   2.057       .  S
O198        C206   1.278       .  A
O199       Cr216   1.914       .  S
O199        C200   1.242       .  A
C200        C564   1.466       .  S
C200        O201   1.279       .  A
O201       Cr217   2.073       .  S
O202       Cr217   1.913       .  S
O202        C203   1.246       .  A
C203        C537   1.467       .  S
C203        O204   1.283       .  A
O204       Cr218   2.068       .  S
O205       Cr218   1.916       .  S
O205        C206   1.245       .  A
C206        C576   1.467       .  S
O207       Cr216   1.914       .  S
O207        C215   1.245       .  A
O208       Cr216   2.072       .  S
O208        C209   1.281       .  A
C209        C864   1.464       .  S
C209        O210   1.243       .  A
O210       Cr217   1.912       .  S
O211       Cr217   2.065       .  S
O211        C212   1.276       .  A
C212        C756   1.464       .  S
C212        O213   1.240       .  A
O213       Cr218   1.916       .  S
O214       Cr218   2.056       .  S
O214        C215   1.278       .  A
C215        C900   1.466       .  S
Cr216       O219   1.750       .  S
Cr217       O219   1.755       .  S
Cr218       O219   1.744       .  S
C220        C221   1.385       .  A
C220        C225   1.418       .  A
C220        C525   1.496       .  S
C221        C222   1.379       .  A
C221        H226   1.085       .  S
C222        C223   1.411       .  A
C222        C540   1.482       .  S
C223        C224   1.432       .  A
C223        H227   1.077       .  S
C224        C225   1.432       .  A
C224        C271   1.538       .  S
C225        H228   1.077       .  S
C229        C230   1.377       .  A
C229        C234   1.411       .  A
C229        C513   1.474       .  S
C230        C231   1.379       .  A
C230        H235   1.087       .  S
C231        C232   1.413       .  A
C231        C585   1.475       .  S
C232        C233   1.431       .  A
C232        H236   1.078       .  S
C233        C234   1.430       .  A
C234        H237   1.078       .  S
C238        C239   1.415       .  A
C238        C243   1.379       .  A
C238        C489   1.481       .  S
C239        C240   1.432       .  A
C239        H244   1.077       .  S
C240        C241   1.433       .  A
C241        C242   1.412       .  A
C241        H245   1.077       .  S
C242        C243   1.379       .  A
C242        C501   1.479       .  S
C243        H246   1.086       .  S
O247       Cr265   1.917       .  S
O247        C255   1.240       .  A
O248       Cr265   2.060       .  S
O248        C249   1.280       .  A
C249        C705   1.473       .  S
C249        O250   1.245       .  A
O250       Cr266   1.910       .  S
O251       Cr266   2.077       .  S
O251        C252   1.284       .  A
C252        C804   1.468       .  S
C252        O253   1.245       .  A
O253       Cr267   1.909       .  S
O254       Cr267   2.066       .  S
O254        C255   1.276       .  A
C255        C852   1.464       .  S
O256       Cr265   2.076       .  S
O256        C264   1.284       .  A
O257       Cr265   1.911       .  S
O257        C258   1.244       .  A
C258        C528   1.480       .  S
C258        O259   1.280       .  A
O259       Cr266   2.062       .  S
O260       Cr266   1.913       .  S
O260        C261   1.241       .  A
C261        C516   1.467       .  S
C261        O262   1.277       .  A
O262       Cr267   2.070       .  S
O263       Cr267   1.909       .  S
O263        C264   1.246       .  A
C264        C492   1.472       .  S
Cr265       O268   1.741       .  S
Cr266       O268   1.744       .  S
Cr267       O268   1.754       .  S
C269        C270   1.413       .  A
C269        C274   1.378       .  A
C269        C477   1.475       .  S
C270        C271   1.433       .  A
C270        H275   1.078       .  S
C271        C272   1.432       .  A
C272        C273   1.412       .  A
C272        H276   1.077       .  S
C273        C274   1.378       .  A
C273        C465   1.474       .  S
C274        H277   1.088       .  S
C278        C279   1.381       .  A
C278        C283   1.412       .  A
C278        C441   1.480       .  S
C279        C280   1.380       .  A
C279        H284   1.087       .  S
C280        C281   1.413       .  A
C280        C456   1.475       .  S
C281        C282   1.431       .  A
C281        H285   1.079       .  S
C282        C283   1.429       .  A
C282        C342   1.532       .  S
C283        H286   1.078       .  S
O287       Cr305   2.058       .  S
O287        C295   1.277       .  A
O288       Cr305   1.916       .  S
O288        C289   1.244       .  A
C289        C444   1.471       .  S
C289        O290   1.277       .  A
O290       Cr306   2.064       .  S
O291       Cr306   1.921       .  S
O291        C292   1.245       .  A
C292        C504   1.465       .  S
C292        O293   1.279       .  A
O293       Cr307   2.062       .  S
O294       Cr307   1.920       .  S
O294        C295   1.244       .  A
C295        C480   1.464       .  S
O296       Cr305   1.912       .  S
O296        C304   1.245       .  A
O297       Cr305   2.066       .  S
O297        C298   1.280       .  A
C298        C816   1.466       .  S
C298        O299   1.244       .  A
O299       Cr306   1.916       .  S
O300       Cr306   2.058       .  S
O300        C301   1.277       .  A
C301        C945   1.464       .  S
C301        O302   1.245       .  A
O302       Cr307   1.918       .  S
O303       Cr307   2.063       .  S
O303        C304   1.280       .  A
C304        C732   1.466       .  S
Cr305       O308   1.749       .  S
Cr306       O308   1.750       .  S
Cr307       O308   1.751       .  S
C309        C310   1.414       .  A
C309        C314   1.381       .  A
C309        C429   1.479       .  S
C310        C311   1.430       .  A
C310        H315   1.079       .  S
C311        C312   1.430       .  A
C312        C313   1.410       .  A
C312        H316   1.079       .  S
C313        C314   1.379       .  A
C313        C417   1.477       .  S
C314        H317   1.087       .  S
O318       Cr336   1.914       .  S
O318        C326   1.244       .  A
O319       Cr336   2.068       .  S
O319        C320   1.281       .  A
C320        C453   1.464       .  S
C320        O321   1.245       .  A
O321       Cr337   1.916       .  S
O322       Cr337   2.064       .  S
O322        C323   1.276       .  A
C323        C420   1.467       .  S
C323        O324   1.242       .  A
O324       Cr338   1.916       .  S
O325       Cr338   2.053       .  S
O325        C326   1.277       .  A
C326        C612   1.466       .  S
O327       Cr336   2.058       .  S
O327        C335   1.279       .  A
O328       Cr336   1.914       .  S
O328        C329   1.242       .  A
C329        C888   1.465       .  S
C329        O330   1.278       .  A
O330       Cr337   2.065       .  S
O331       Cr337   1.910       .  S
O331        C332   1.245       .  A
C332        C744   1.461       .  S
C332        O333   1.281       .  A
O333       Cr338   2.065       .  S
O334       Cr338   1.913       .  S
O334        C335   1.245       .  A
C335        C825   1.465       .  S
Cr336       O339   1.750       .  S
Cr337       O339   1.757       .  S
Cr338       O339   1.749       .  S
C340        C341   1.415       .  A
C340        C345   1.381       .  A
C340        C405   1.479       .  S
C341        C342   1.430       .  A
C341        H346   1.079       .  S
C342        C343   1.430       .  A
C343        C344   1.410       .  A
C343        H347   1.079       .  S
C344        C345   1.378       .  A
C344        C393   1.472       .  S
C345        H348   1.087       .  S
O349       Cr367   1.919       .  S
O349        C357   1.243       .  A
O350       Cr367   2.057       .  S
O350        C351   1.279       .  A
C351        C960   1.465       .  S
C351        O352   1.245       .  A
O352       Cr368   1.918       .  S
O353       Cr368   2.071       .  S
O353        C354   1.281       .  A
C354        C681   1.468       .  S
C354        O355   1.245       .  A
O355       Cr369   1.910       .  S
O356       Cr369   2.058       .  S
O356        C357   1.276       .  A
C357        C909   1.462       .  S
O358       Cr367   2.062       .  S
O358        C366   1.280       .  A
O359       Cr367   1.915       .  S
O359        C360   1.244       .  A
C360        C552   1.473       .  S
C360        O361   1.278       .  A
O361       Cr368   2.060       .  S
O362       Cr368   1.922       .  S
O362        C363   1.244       .  A
C363        C468   1.464       .  S
C363        O364   1.276       .  A
O364       Cr369   2.060       .  S
O365       Cr369   1.916       .  S
O365        C366   1.245       .  A
C366        C396   1.462       .  S
Cr367       O370   1.748       .  S
Cr368       O370   1.753       .  S
Cr369       O370   1.754       .  S
O371       Cr389   2.068       .  S
O371        C379   1.280       .  A
O372       Cr389   1.913       .  S
O372        C373   1.245       .  A
C373        C693   1.465       .  S
C373        O374   1.280       .  A
O374       Cr390   2.065       .  S
O375       Cr390   1.910       .  S
O375        C376   1.243       .  A
C376        C840   1.467       .  S
C376        O377   1.280       .  A
O377       Cr391   2.066       .  S
O378       Cr391   1.916       .  S
O378        C379   1.243       .  A
C379        C792   1.466       .  S
O380       Cr389   1.911       .  S
O380        C388   1.243       .  A
O381       Cr389   2.062       .  S
O381        C382   1.278       .  A
C382        C432   1.466       .  S
C382        O383   1.244       .  A
O383       Cr390   1.913       .  S
O384       Cr390   2.068       .  S
O384        C385   1.280       .  A
C385        C660   1.473       .  S
C385        O386   1.245       .  A
O386       Cr391   1.918       .  S
O387       Cr391   2.074       .  S
O387        C388   1.281       .  A
C388        C408   1.473       .  S
Cr389       O392   1.750       .  S
Cr390       O392   1.748       .  S
Cr391       O392   1.748       .  S
C393        C394   1.401       .  A
C393        C398   1.410       .  A
C394        C395   1.399       .  A
C394        H399   1.084       .  S
C395        C396   1.409       .  A
C395        O400   1.372       .  S
C396        C397   1.402       .  A
C397        C398   1.401       .  A
C397        H401   1.084       .  S
C398        O402   1.371       .  S
O400        H404   0.992       .  S
O402        H403   0.992       .  S
C405        C406   1.395       .  A
C405        C410   1.416       .  A
C406        C407   1.398       .  A
C406        H411   1.084       .  S
C407        C408   1.416       .  A
C407        O412   1.374       .  S
C408        C409   1.400       .  A
C409        C410   1.406       .  A
C409        H413   1.084       .  S
C410        O414   1.373       .  S
O412        H416   0.992       .  S
O414        H415   0.992       .  S
C417        C418   1.412       .  A
C417        C422   1.403       .  A
C418        C419   1.403       .  A
C418        H423   1.084       .  S
C419        C420   1.403       .  A
C419        O424   1.371       .  S
C420        C421   1.408       .  A
C421        C422   1.396       .  A
C421        H425   1.084       .  S
C422        O426   1.372       .  S
O424        H428   0.992       .  S
O426        H427   0.992       .  S
C429        C430   1.413       .  A
C429        C434   1.401       .  A
C430        C431   1.400       .  A
C430        H435   1.084       .  S
C431        C432   1.401       .  A
C431        O436   1.371       .  S
C432        C433   1.409       .  A
C433        C434   1.398       .  A
C433        H437   1.084       .  S
C434        O438   1.371       .  S
O436        H440   0.992       .  S
O438        H439   0.992       .  S
C441        C442   1.414       .  A
C441        C446   1.402       .  A
C442        C443   1.403       .  A
C442        H447   1.084       .  S
C443        C444   1.402       .  A
C443        O448   1.371       .  S
C444        C445   1.410       .  A
C445        C446   1.395       .  A
C445        H449   1.084       .  S
C446        O450   1.372       .  S
O448        H452   0.992       .  S
O450        H451   0.992       .  S
C453        C454   1.403       .  A
C453        C458   1.409       .  A
C454        C455   1.402       .  A
C454        H459   1.084       .  S
C455        C456   1.411       .  A
C455        O460   1.371       .  S
C456        C457   1.402       .  A
C457        C458   1.401       .  A
C457        H461   1.084       .  S
C458        O462   1.372       .  S
O460        H464   0.992       .  S
O462        H463   0.992       .  S
C465        C466   1.408       .  A
C465        C470   1.405       .  A
C466        C467   1.402       .  A
C466        H471   1.084       .  S
C467        C468   1.405       .  A
C467        O472   1.371       .  S
C468        C469   1.406       .  A
C469        C470   1.399       .  A
C469        H473   1.084       .  S
C470        O474   1.371       .  S
O472        H476   0.992       .  S
O474        H475   0.992       .  S
C477        C478   1.405       .  A
C477        C482   1.408       .  A
C478        C479   1.403       .  A
C478        H483   1.084       .  S
C479        C480   1.408       .  A
C479        O484   1.372       .  S
C480        C481   1.403       .  A
C481        C482   1.400       .  A
C481        H485   1.084       .  S
C482        O486   1.372       .  S
O484        H488   0.992       .  S
O486        H487   0.992       .  S
C489        C490   1.396       .  A
C489        C494   1.417       .  A
C490        C491   1.398       .  A
C490        H495   1.084       .  S
C491        C492   1.415       .  A
C491        O496   1.372       .  S
C492        C493   1.398       .  A
C493        C494   1.406       .  A
C493        H497   1.084       .  S
C494        O498   1.373       .  S
O496        H500   0.992       .  S
O498        H499   0.992       .  S
C501        C502   1.400       .  A
C501        C506   1.414       .  A
C502        C503   1.401       .  A
C502        H507   1.084       .  S
C503        C504   1.413       .  A
C503        O508   1.373       .  S
C504        C505   1.398       .  A
C505        C506   1.401       .  A
C505        H509   1.084       .  S
C506        O510   1.373       .  S
O508        H512   0.992       .  S
O510        H511   0.992       .  S
C513        C514   1.411       .  A
C513        C518   1.403       .  A
C514        C515   1.404       .  A
C514        H519   1.084       .  S
C515        C516   1.405       .  A
C515        O520   1.371       .  S
C516        C517   1.408       .  A
C517        C518   1.394       .  A
C517        H521   1.083       .  S
C518        O522   1.372       .  S
O520        H524   0.991       .  S
O522        H523   0.992       .  S
C525        C526   1.419       .  A
C525        C530   1.402       .  A
C526        C527   1.399       .  A
C526        H531   1.080       .  S
C527        C528   1.397       .  A
C527        O532   1.372       .  S
C528        C529   1.416       .  A
C529        C530   1.399       .  A
C529        H533   1.084       .  S
C530        O534   1.371       .  S
O532        H536   0.992       .  S
O534        H535   0.991       .  S
C537        C538   1.394       .  A
C537        C542   1.416       .  A
C538        C539   1.401       .  A
C538        H543   1.084       .  S
C539        C540   1.417       .  A
C539        O544   1.374       .  S
C540        C541   1.398       .  A
C541        C542   1.402       .  A
C541        H545   1.083       .  S
C542        O546   1.372       .  S
O544        H548   0.991       .  S
O546        H547   0.991       .  S
C549        C550   1.395       .  A
C549        C554   1.420       .  A
C550        C551   1.397       .  A
C550        H555   1.084       .  S
C551        C552   1.418       .  A
C551        O556   1.372       .  S
C552        C553   1.396       .  A
C553        C554   1.401       .  A
C553        H557   1.084       .  S
C554        O558   1.372       .  S
O556        H560   0.992       .  S
O558        H559   0.991       .  S
C561        C562   1.402       .  A
C561        C566   1.411       .  A
C562        C563   1.398       .  A
C562        H567   1.084       .  S
C563        C564   1.410       .  A
C563        O568   1.372       .  S
C564        C565   1.404       .  A
C565        C566   1.405       .  A
C565        H569   1.084       .  S
C566        O570   1.371       .  S
O568        H572   0.992       .  S
O570        H571   0.992       .  S
C573        C574   1.412       .  A
C573        C578   1.402       .  A
C574        C575   1.399       .  A
C574        H579   1.084       .  S
C575        C576   1.400       .  A
C575        O580   1.371       .  S
C576        C577   1.410       .  A
C577        C578   1.400       .  A
C577        H581   1.084       .  S
C578        O582   1.371       .  S
O580        H584   0.992       .  S
O582        H583   0.992       .  S
C585        C586   1.411       .  A
C585        C590   1.402       .  A
C586        C587   1.401       .  A
C586        H591   1.084       .  S
C587        C588   1.402       .  A
C587        O592   1.371       .  S
C588        C589   1.409       .  A
C589        C590   1.399       .  A
C589        H593   1.084       .  S
C590        O594   1.371       .  S
O592        H596   0.992       .  S
O594        H595   0.992       .  S
C597        C598   1.415       .  A
C597        C602   1.401       .  A
C598        C599   1.399       .  A
C598        H603   1.084       .  S
C599        C600   1.400       .  A
C599        O604   1.372       .  S
C600        C601   1.412       .  A
C601        C602   1.397       .  A
C601        H605   1.084       .  S
C602        O606   1.372       .  S
O604        H608   0.992       .  S
O606        H607   0.992       .  S
C609        C610   1.413       .  A
C609        C614   1.402       .  A
C610        C611   1.399       .  A
C610        H615   1.084       .  S
C611        C612   1.400       .  A
C611        O616   1.371       .  S
C612        C613   1.410       .  A
C613        C614   1.399       .  A
C613        H617   1.084       .  S
C614        O618   1.371       .  S
O616        H620   0.992       .  S
O618        H619   0.992       .  S
C621        C622   1.408       .  A
C621        C626   1.405       .  A
C622        C623   1.399       .  A
C622        H627   1.084       .  S
C623        C624   1.405       .  A
C623        O628   1.372       .  S
C624        C625   1.408       .  A
C625        C626   1.403       .  A
C625        H629   1.084       .  S
C626        O630   1.371       .  S
O628        H632   0.992       .  S
O630        H631   0.992       .  S
C633        C634   1.394       .  A
C633        C638   1.417       .  A
C634        C635   1.400       .  A
C634        H639   1.084       .  S
C635        C636   1.421       .  A
C635        O640   1.374       .  S
C636        C637   1.397       .  A
C637        C638   1.400       .  A
C637        H641   1.084       .  S
C638        O642   1.372       .  S
O640        H644   0.992       .  S
O642        H643   0.991       .  S
C645        C646   1.409       .  A
C645        C650   1.403       .  A
C646        C647   1.403       .  A
C646        H651   1.084       .  S
C647        C648   1.404       .  A
C647        O652   1.371       .  S
C648        C649   1.409       .  A
C649        C650   1.398       .  A
C649        H653   1.084       .  S
C650        O654   1.372       .  S
O652        H656   0.992       .  S
O654        H655   0.992       .  S
C657        C658   1.396       .  A
C657        C662   1.417       .  A
C658        C659   1.398       .  A
C658        H663   1.084       .  S
C659        C660   1.414       .  A
C659        O664   1.370       .  S
C660        C661   1.398       .  A
C661        C662   1.405       .  A
C661        H665   1.084       .  S
C662        O666   1.373       .  S
O664        H668   0.992       .  S
O666        H667   0.992       .  S
C669        C670   1.412       .  A
C669        C674   1.403       .  A
C670        C671   1.401       .  A
C670        H675   1.084       .  S
C671        C672   1.402       .  A
C671        O676   1.371       .  S
C672        C673   1.410       .  A
C673        C674   1.401       .  A
C673        H677   1.084       .  S
C674        O678   1.371       .  S
O676        H680   0.992       .  S
O678        H679   0.992       .  S
C681        C682   1.409       .  A
C681        C686   1.403       .  A
C682        C683   1.398       .  A
C682        H687   1.085       .  S
C683        C684   1.403       .  A
C683        O688   1.372       .  S
C684        C685   1.411       .  A
C685        C686   1.403       .  A
C685        H689   1.084       .  S
C686        O690   1.371       .  S
O688        H692   0.992       .  S
O690        H691   0.992       .  S
C693        C694   1.398       .  A
C693        C698   1.414       .  A
C694        C695   1.402       .  A
C694        H699   1.084       .  S
C695        C696   1.415       .  A
C695        O700   1.373       .  S
C696        C697   1.398       .  A
C697        C698   1.399       .  A
C697        H701   1.084       .  S
C698        O702   1.372       .  S
O700        H704   0.992   1_545  S
O702        H703   0.992       .  S
C705        C706   1.413       .  A
C705        C710   1.399       .  A
C706        C707   1.400       .  A
C706        H711   1.084       .  S
C707        C708   1.401       .  A
C707        O712   1.371       .  S
C708        C709   1.416       .  A
C709        C710   1.400       .  A
C709        H713   1.083       .  S
C710        O714   1.372       .  S
O712        H716   0.992       .  S
O714        H715   0.992       .  S
C717        C718   1.398       .  A
C717        C722   1.415       .  A
C718        C719   1.399       .  A
C718        H723   1.084       .  S
C719        C720   1.414       .  A
C719        O724   1.372       .  S
C720        C721   1.396       .  A
C721        C722   1.400       .  A
C721        H725   1.084       .  S
C722        O726   1.373       .  S
O724        H728   0.992       .  S
O726        H727   0.992   1_545  S
C729        C730   1.397       .  A
C729        C734   1.416       .  A
C730        C731   1.399       .  A
C730        H735   1.084       .  S
C731        C732   1.414       .  A
C731        O736   1.372       .  S
C732        C733   1.397       .  A
C733        C734   1.402       .  A
C733        H737   1.084       .  S
C734        O738   1.373       .  S
O736        H740   0.992       .  S
O738        H739   0.992       .  S
C741        C742   1.407       .  A
C741        C746   1.405       .  A
C742        C743   1.398       .  A
C742        H747   1.084       .  S
C743        C744   1.405       .  A
C743        O748   1.372       .  S
C744        C745   1.407       .  A
C745        C746   1.402       .  A
C745        H749   1.084       .  S
C746        O750   1.371       .  S
O748        H752   0.992       .  S
O750        H751   0.992       .  S
C753        C754   1.410       .  A
C753        C758   1.405       .  A
C754        C755   1.402       .  A
C754        H759   1.084       .  S
C755        C756   1.405       .  A
C755        O760   1.372       .  S
C756        C757   1.407       .  A
C757        C758   1.399       .  A
C757        H761   1.084       .  S
C758        O762   1.371       .  S
O760        H764   0.992       .  S
O762        H763   0.992       .  S
C765        C766   1.397       .  A
C765        C770   1.417       .  A
C766        C767   1.398       .  A
C766        H771   1.084       .  S
C767        C768   1.414       .  A
C767        O772   1.372       .  S
C768        C769   1.396       .  A
C769        C770   1.401       .  A
C769        H773   1.084       .  S
C770        O774   1.373       .  S
O772        H776   0.992       .  S
O774        H775   0.992   1_545  S
C777        C778   1.409       .  A
C777        C782   1.401       .  A
C778        C779   1.399       .  A
C778        H783   1.082       .  S
C779        C780   1.403       .  A
C779        O784   1.371       .  S
C780        C781   1.415       .  A
C781        C782   1.402       .  A
C781        H785   1.084       .  S
C782        O786   1.371       .  S
O784        H788   0.992       .  S
O786        H787   0.992       .  S
C789        C790   1.400       .  A
C789        C794   1.414       .  A
C790        C791   1.401       .  A
C790        H795   1.084       .  S
C791        C792   1.413       .  A
C791        O796   1.372       .  S
C792        C793   1.400       .  A
C793        C794   1.402       .  A
C793        H797   1.084       .  S
C794        O798   1.372       .  S
O796        H800   0.992       .  S
O798        H799   0.992       .  S
C801        C802   1.412       .  A
C801        C806   1.404       .  A
C802        C803   1.403       .  A
C802        H807   1.084       .  S
C803        C804   1.404       .  A
C803        O808   1.371       .  S
C804        C805   1.409       .  A
C805        C806   1.399       .  A
C805        H809   1.085       .  S
C806        O810   1.372       .  S
O808        H812   0.992       .  S
O810        H811   0.992       .  S
C813        C814   1.411       .  A
C813        C818   1.404       .  A
C814        C815   1.400       .  A
C814        H819   1.084       .  S
C815        C816   1.402       .  A
C815        O820   1.371       .  S
C816        C817   1.409       .  A
C817        C818   1.400       .  A
C817        H821   1.084       .  S
C818        O822   1.371       .  S
O820        H824   0.992       .  S
O822        H823   0.992       .  S
C825        C826   1.409       .  A
C825        C830   1.401       .  A
C826        C827   1.400       .  A
C826        H831   1.084       .  S
C827        C828   1.402       .  A
C827        O832   1.371       .  S
C828        C829   1.411       .  A
C829        C830   1.399       .  A
C829        H833   1.084       .  S
C830        O834   1.372       .  S
O832        H836   0.992       .  S
O834        H835   0.992       .  S
C837        C838   1.397       .  A
C837        C842   1.417       .  A
C838        C839   1.400       .  A
C838        H843   1.084       .  S
C839        C840   1.416       .  A
C839        O844   1.372       .  S
C840        C841   1.397       .  A
C841        C842   1.402       .  A
C841        H845   1.084       .  S
C842        O846   1.373       .  S
O844        H848   0.991       .  S
O846        H847   0.992       .  S
C849        C850   1.409       .  A
C849        C854   1.405       .  A
C850        C851   1.401       .  A
C850        H855   1.084       .  S
C851        C852   1.405       .  A
C851        O856   1.372       .  S
C852        C853   1.407       .  A
C853        C854   1.399       .  A
C853        H857   1.084       .  S
C854        O858   1.372       .  S
O856        H860   0.992       .  S
O858        H859   0.992       .  S
C861        C862   1.402       .  A
C861        C866   1.412       .  A
C862        C863   1.401       .  A
C862        H867   1.084       .  S
C863        C864   1.412       .  A
C863        O868   1.372       .  S
C864        C865   1.402       .  A
C865        C866   1.402       .  A
C865        H869   1.084       .  S
C866        O870   1.371       .  S
O868        H872   0.992       .  S
O870        H871   0.992       .  S
C873        C874   1.407       .  A
C873        C878   1.406       .  A
C874        C875   1.399       .  A
C874        H879   1.084       .  S
C875        C876   1.406       .  A
C875        O880   1.372       .  S
C876        C877   1.407       .  A
C877        C878   1.403       .  A
C877        H881   1.084       .  S
C878        O882   1.371       .  S
O880        H884   0.992       .  S
O882        H883   0.992       .  S
C885        C886   1.412       .  A
C885        C890   1.403       .  A
C886        C887   1.400       .  A
C886        H891   1.084   1_455  S
C887        C888   1.401       .  A
C887        O892   1.372       .  S
C888        C889   1.410       .  A
C889        C890   1.401       .  A
C889        H893   1.084       .  S
C890        O894   1.371       .  S
O892        H896   0.992       .  S
O894        H895   0.992       .  S
C897        C898   1.412       .  A
C897        C902   1.403       .  A
C898        C899   1.400       .  A
C898        H903   1.084       .  S
C899        C900   1.402       .  A
C899        O904   1.372       .  S
C900        C901   1.409       .  A
C901        C902   1.400       .  A
C901        H905   1.084       .  S
C902        O906   1.371       .  S
O904        H908   0.992       .  S
O906        H907   0.992       .  S
C909        C910   1.401       .  A
C909        C914   1.410       .  A
C910        C911   1.399       .  A
C910        H915   1.084       .  S
C911        C912   1.411       .  A
C911        O916   1.372       .  S
C912        C913   1.402       .  A
C913        C914   1.402       .  A
C913        H917   1.084       .  S
C914        O918   1.372       .  S
O916        H920   0.992       .  S
O918        H919   0.992       .  S
C921        C922   1.409       .  A
C921        C926   1.403       .  A
C922        C923   1.401       .  A
C922        H927   1.084       .  S
C923        C924   1.404       .  A
C923        O928   1.371       .  S
C924        C925   1.412       .  A
C925        C926   1.402       .  A
C925        H929   1.084       .  S
C926        O930   1.371       .  S
O928        H932   0.992       .  S
O930        H931   0.992       .  S
C933        C934   1.397       .  A
C933        C938   1.415       .  A
C934        C935   1.398       .  A
C934        H939   1.084       .  S
C935        C936   1.413       .  A
C935        O940   1.372       .  S
C936        C937   1.400       .  A
C937        C938   1.403       .  A
C937        H941   1.084       .  S
C938        O942   1.371       .  S
O940        H944   0.992       .  S
O942        H943   0.992       .  S
C945        C946   1.399       .  A
C945        C950   1.412       .  A
C946        C947   1.400       .  A
C946        H951   1.084       .  S
C947        C948   1.414       .  A
C947        O952   1.372       .  S
C948        C949   1.400       .  A
C949        C950   1.401       .  A
C949        H953   1.084       .  S
C950        O954   1.372       .  S
O952        H956   0.992       .  S
O954        H955   0.992       .  S
C957        C958   1.407       .  A
C957        C962   1.406       .  A
C958        C959   1.401       .  A
C958        H963   1.084       .  S
C959        C960   1.406       .  A
C959        O964   1.372       .  S
C960        C961   1.406       .  A
C961        C962   1.402       .  A
C961        H965   1.084       .  S
C962        O966   1.371       .  S
O964        H968   0.992       .  S
O966        H967   0.992       .  S
