geometry optimzed in LAMMPS
_audit_creation_date              2020-11-30 
_audit_creation_method            'lammps2cif' 
_symmetry_space_group_name_H-M    'P1' 
_symmetry_Int_Tables_number       1 
_symmetry_cell_setting            triclinic 
loop_ 
_symmetry_equiv_pos_as_xyz 
  x,y,z 
_cell_length_a                    44.75651772 
_cell_length_b                    44.84242462532679 
_cell_length_c                    36.08499832103464 
_cell_angle_alpha                 89.50028564452043 
_cell_angle_beta                  89.93063672630258 
_cell_angle_gamma                 90.24288176858497 
loop_ 
_atom_site_label 
_atom_site_type_symbol 
_atom_site_fract_x 
_atom_site_fract_y 
_atom_site_fract_z 
_atom_site_charge 
C1          C  0.75168961  0.77767111  0.77093528     0.02600
C2          C  0.77475239  0.75615755  0.76970316     0.02600
C3          C  0.77124034  0.73089429  0.74723139    -0.17900
C4          C  0.74506245  0.72627800  0.72672334     0.02600
C5          C  0.72213542  0.74772646  0.72765854     0.02600
C6          C  0.72564679  0.77323369  0.74974801    -0.17900
H7          H  0.70796029  0.78965927  0.75056170     0.04600
H8          H  0.78903455  0.71461396  0.74574267     0.04600
C9          C  0.74988145  0.22889677  0.77963767     0.02600
C10         C  0.77317421  0.25029423  0.77877249     0.02600
C11         C  0.77002390  0.27606432  0.75667811    -0.17900
C12         C  0.74447922  0.28059211  0.73456309     0.02600
C13         C  0.72134263  0.25889681  0.73514006     0.02600
C14         C  0.72430429  0.23344208  0.75774823    -0.17900
H15         H  0.70672149  0.21672716  0.75783853     0.04600
H16         H  0.78755587  0.29281896  0.75688859     0.04600
C17         C  0.22472926  0.25228731  0.77985605     0.02600
C18         C  0.24810244  0.23113213  0.77929099     0.02600
C19         C  0.27383855  0.23693193  0.75807410    -0.17900
C20         C  0.27641402  0.26285230  0.73628278     0.02600
C21         C  0.25233115  0.28312184  0.73471188     0.02600
C22         C  0.22692238  0.27777551  0.75687182    -0.17900
H23         H  0.20875533  0.29369250  0.75638372     0.04600
H24         H  0.29197417  0.22095869  0.75829287     0.04600
C25         C  0.23350283  0.74885275  0.77370054     0.02600
C26         C  0.25550840  0.77167942  0.77351463     0.02600
C27         C  0.28130512  0.76826319  0.75143470    -0.17900
C28         C  0.28510290  0.74313332  0.72880910     0.02600
C29         C  0.26281014  0.72072781  0.72857513     0.02600
C30         C  0.23748702  0.72362198  0.75133522    -0.17900
H31         H  0.22050688  0.70638245  0.75113230     0.04600
H32         H  0.29853532  0.78528858  0.75182395     0.04600
C33         C  0.25256096  0.76835839  0.21185280     0.02600
C34         C  0.23089827  0.74541257  0.20964940     0.02600
C35         C  0.23463293  0.71934139  0.23079465    -0.17900
C36         C  0.25951110  0.71546604  0.25404031     0.02600
C37         C  0.28157416  0.73814898  0.25610005     0.02600
C38         C  0.27769386  0.76440417  0.23490251    -0.17900
H39         H  0.29395157  0.78229431  0.23715144     0.04600
H40         H  0.21763148  0.70205356  0.22973052     0.04600
C41         C  0.76603667  0.78149900  0.23685525     0.02600
C42         C  0.78798393  0.75888761  0.23823301     0.02600
C43         C  0.78287857  0.73348449  0.26052777    -0.17900
C44         C  0.75623464  0.73008079  0.28084764     0.02600
C45         C  0.73452097  0.75288830  0.27969157     0.02600
C46         C  0.74004690  0.77863628  0.25836341    -0.17900
H47         H  0.72332546  0.79605857  0.25717640     0.04600
H48         H  0.79936696  0.71583393  0.26121483     0.04600
C49         C  0.75153609  0.22209583  0.23325429     0.02600
C50         C  0.77468711  0.24367074  0.23414529     0.02600
C51         C  0.77112198  0.26925557  0.25618115    -0.17900
C52         C  0.74527918  0.27346883  0.27789244     0.02600
C53         C  0.72244332  0.25153102  0.27711845     0.02600
C54         C  0.72571881  0.22632160  0.25466412    -0.17900
H55         H  0.70815744  0.20958824  0.25426364     0.04600
H56         H  0.78846639  0.28620898  0.25606311     0.04600
Fe57       Fe  0.46300132  0.79689235  0.50091787     1.65800
Fe58       Fe  0.53787384  0.79862044  0.50225776     1.73200
Fe59       Fe  0.50221453  0.73204037  0.49280710     1.54400
O60         O  0.47276135  0.72529660  0.53669183    -0.81300
O61         O  0.56083924  0.77265883  0.46568006    -0.79600
O62         O  0.44167229  0.76377278  0.53089802    -0.83800
O63         O  0.44915128  0.77865227  0.45234229    -0.78700
O64         O  0.53740875  0.72721109  0.53168315    -0.80500
O65         O  0.52654563  0.82515451  0.45820372    -0.83200
C66         C  0.45020063  0.75250319  0.43942050     0.97600
C67         C  0.44919048  0.73918744  0.54562130     1.05000
O68         O  0.50096990  0.77560102  0.49844639    -1.12200
O69         O  0.52098763  0.82864160  0.53974969    -0.74600
O70         O  0.47383998  0.81605262  0.55059343    -0.78100
O71         O  0.46690328  0.73222056  0.45356479    -0.78800
C72         C  0.49752906  0.82979669  0.55931180     0.96500
O73         O  0.47867309  0.83380554  0.47087284    -0.76800
O74         O  0.55146198  0.77353803  0.54620712    -0.82000
C75         C  0.55504409  0.75118182  0.44430799     0.99100
C76         C  0.55195358  0.74563851  0.55179105     1.05000
O77         O  0.53212024  0.73465148  0.44850071    -0.77600
C78         C  0.50260332  0.83945874  0.45305846     1.03300
Fe79       Fe  0.69371750  0.04025983  0.00324960     1.65800
Fe80       Fe  0.69083815  0.96602235  0.99552914     1.73200
Fe81       Fe  0.75811865  0.00028673  0.00201441     1.54400
O82         O  0.76197711  0.03088452  0.95853769    -0.81300
O83         O  0.71931981  0.94090727  0.02757563    -0.79600
O84         O  0.72593328  0.06284286  0.97343387    -0.83800
O85         O  0.71444916  0.05016293  0.05185733    -0.78700
O86         O  0.76039622  0.96555974  0.96258931    -0.80500
O87         O  0.66731342  0.97530422  0.04316974    -0.83200
C88         C  0.74194638  0.04985356  0.06004837     0.97600
C89         C  0.74867147  0.05571817  0.95457130     1.05000
O90         O  0.71444887  0.00220022  0.00027065    -1.12200
O91         O  0.65892519  0.98567479  0.96174696    -0.74600
O92         O  0.67191120  0.03300782  0.95414117    -0.78100
O93         O  0.76116395  0.03488032  0.04166701    -0.78800
C94         C  0.65732808  0.01027298  0.94408608     0.96500
O95         O  0.65826993  0.02350517  0.03427871    -0.76800
O96         O  0.71319349  0.95424780  0.94849524    -0.82000
C97         C  0.74135040  0.94577566  0.04863364     0.99100
C98         C  0.74102456  0.95216200  0.94256138     1.05000
O99         O  0.75725975  0.96930153  0.04551010    -0.77600
C100        C  0.65409639  0.99918548  0.05184942     1.03300
Fe101      Fe  0.31476731  0.02977926  0.99295099     1.65800
Fe102      Fe  0.30728143  0.95537536  0.99970648     1.73200
Fe103      Fe  0.24521669  0.99888883  0.99503697     1.54400
O104        O  0.24585339  0.02925749  0.03891764    -0.81300
O105        O  0.27518681  0.93540502  0.96791481    -0.79600
O106        O  0.28793704  0.05445152  0.02699825    -0.83800
O107        O  0.29356122  0.04575042  0.94657493    -0.78700
O108        O  0.23873736  0.96395292  0.03373824    -0.80500
O109        O  0.33150698  0.96218567  0.95199972    -0.83200
C110        C  0.26608241  0.04831057  0.93877148     0.97600
C111        C  0.26380752  0.05088138  0.04500383     1.05000
O112        O  0.28893808  0.99481913  0.99591916    -1.12200
O113        O  0.34270331  0.96844677  0.03251884    -0.74600
O114        O  0.33771550  0.01727003  0.03980250    -0.78100
O115        O  0.24574690  0.03419449  0.95652399    -0.78800
C116        C  0.34867550  0.99239094  0.04929008     0.96500
O117        O  0.34516727  0.00953535  0.95812784    -0.76800
O118        O  0.28404390  0.94616871  0.04712907    -0.82000
C119        C  0.25517523  0.94469214  0.94597904     0.99100
C120        C  0.25621324  0.94771686  0.05320324     1.05000
O121        O  0.24198802  0.96953298  0.95034721    -0.77600
C122        C  0.34688331  0.98457114  0.94184140     1.03300
Fe123      Fe  0.45188523  0.20821489  0.50524813     1.65800
Fe124      Fe  0.52641455  0.19866125  0.50561709     1.73200
Fe125      Fe  0.49836341  0.26904390  0.50521728     1.54400
O126        O  0.46944713  0.27504952  0.46000065    -0.81300
O127        O  0.55220241  0.22529861  0.53908610    -0.79600
O128        O  0.43482304  0.23992769  0.46970979    -0.83800
O129        O  0.44027863  0.23247579  0.55062444    -0.78700
O130        O  0.53391655  0.26663316  0.46724375    -0.80500
O131        O  0.51124240  0.17800239  0.55287281    -0.83200
C132        C  0.44531016  0.25908284  0.56046171     0.97600
C133        C  0.44455409  0.26264407  0.45235710     1.05000
O134        O  0.49218669  0.22554492  0.50518542    -1.12200
O135        O  0.50654090  0.16690409  0.47211932    -0.74600
O136        O  0.46058884  0.18253485  0.45932785    -0.78100
O137        O  0.46377601  0.27628763  0.54367973    -0.78800
C138        C  0.48266199  0.16565472  0.45331824     0.96500
O139        O  0.46258961  0.17382967  0.54164750    -0.76800
O140        O  0.54383124  0.21830724  0.45894328    -0.82000
C141        C  0.54884289  0.24886973  0.55761167     0.99100
C142        C  0.54755220  0.24563291  0.45060777     1.05000
O143        O  0.52797738  0.26728322  0.55039269    -0.77600
C144        C  0.48559105  0.16773350  0.56073628     1.03300
C145        C  0.49922375  0.00441131  0.25842944    -0.02100
C146        C  0.50325496  0.99922142  0.74029121    -0.02100
Fe147      Fe  0.79756877  0.53613934  0.50423923     1.65800
Fe148      Fe  0.79407234  0.46077977  0.50104980     1.73200
Fe149      Fe  0.72907309  0.50133652  0.49985577     1.54400
O150        O  0.72605658  0.53569679  0.53912765    -0.81300
O151        O  0.77103424  0.44687652  0.45582224    -0.79600
O152        O  0.77230065  0.55343101  0.54547921    -0.83800
O153        O  0.77280300  0.55693037  0.46402442    -0.78700
O154        O  0.72447990  0.47093861  0.54358136    -0.80500
O155        O  0.82758402  0.47446449  0.46505494    -0.83200
C156        C  0.74813729  0.55289540  0.44757970     0.97600
C157        C  0.74508507  0.55274347  0.55462215     1.05000
O158        O  0.77342697  0.49947507  0.50158655    -1.12200
O159        O  0.81894733  0.47064057  0.54685183    -0.74600
O160        O  0.82520053  0.51972151  0.54521419    -0.78100
O161        O  0.72960120  0.53243509  0.45655028    -0.78800
C162        C  0.82980023  0.49441526  0.55994635     0.96500
O163        O  0.82609125  0.52375914  0.46299705    -0.76800
O164        O  0.76410135  0.44138643  0.53695717    -0.82000
C165        C  0.74433275  0.44950534  0.44497638     0.99100
C166        C  0.74003982  0.44846692  0.55303355     1.05000
O167        O  0.72570201  0.46711470  0.46017544    -0.77600
C168        C  0.83662224  0.49930149  0.45214389     1.03300
Fe169      Fe  0.95568092  0.69915954  0.99350370     1.65800
Fe170      Fe  0.03079197  0.68987833  0.98915901     1.73200
Fe171      Fe  0.00167387  0.76038787  0.99180164     1.54400
O172        O  0.97138979  0.76699586  0.94854458    -0.81300
O173        O  0.05494105  0.71441497  0.02678588    -0.79600
O174        O  0.93756370  0.73142594  0.95977016    -0.83800
O175        O  0.94504705  0.72265951  0.03972644    -0.78700
O176        O  0.03645083  0.76006607  0.95246604    -0.80500
O177        O  0.01654599  0.66424048  0.03315152    -0.83200
C178        C  0.94945499  0.74952465  0.04864270     0.97600
C179        C  0.94612776  0.75478576  0.94279103     1.05000
O180        O  0.99611570  0.71657407  0.99140544    -1.12200
O181        O  0.01084673  0.66157410  0.95171242    -0.74600
O182        O  0.96273900  0.67392907  0.94697779    -0.78100
O183        O  0.96780515  0.76668954  0.03160903    -0.78800
C184        C  0.98535704  0.65928957  0.93662432     0.96500
O185        O  0.96705677  0.66447491  0.02870444    -0.76800
O186        O  0.04932561  0.71251739  0.94499402    -0.82000
C187        C  0.05228646  0.73904155  0.04348447     0.99100
C188        C  0.05148351  0.73987154  0.93625492     1.05000
O189        O  0.03248939  0.75822234  0.03500485    -0.77600
C190        C  0.99100667  0.65520472  0.04336118     1.03300
Fe191      Fe  0.96034020  0.30455106  0.99901727     1.65800
Fe192      Fe  0.03490445  0.30677097  0.00614905     1.73200
Fe193      Fe  0.99912633  0.24016124  0.00640198     1.54400
O194        O  0.96950118  0.23950802  0.05105385    -0.81300
O195        O  0.05981103  0.27540976  0.97790432    -0.79600
O196        O  0.93793508  0.27517872  0.03343461    -0.83800
O197        O  0.94942962  0.28112477  0.95326390    -0.78700
O198        O  0.03489508  0.24005212  0.04483307    -0.80500
O199        O  0.02559378  0.32640931  0.95597615    -0.83200
C200        C  0.94910365  0.25339015  0.94753978     0.97600
C201        C  0.94545464  0.25416969  0.05527886     1.05000
O202        O  0.99810551  0.28365313  0.00400440    -1.12200
O203        O  0.01579183  0.34194733  0.03512424    -0.74600
O204        O  0.96829207  0.32943701  0.04486236    -0.78100
O205        O  0.96364131  0.23493722  0.96783518    -0.78800
C206        C  0.99103189  0.34506892  0.05188393     0.96500
O207        O  0.97762489  0.33698181  0.96355527    -0.76800
O208        O  0.04633078  0.28764096  0.05584237    -0.82000
C209        C  0.05373263  0.25247257  0.95890037     0.99100
C210        C  0.04885956  0.26005772  0.06323021     1.05000
O211        O  0.02913672  0.23832581  0.96227377    -0.77600
C212        C  0.00200050  0.33949685  0.94561485     1.03300
Fe213      Fe  0.19850991  0.53893991  0.50157844     1.65800
Fe214      Fe  0.19655863  0.46461986  0.49699882     1.73200
Fe215      Fe  0.26305881  0.50038726  0.49540685     1.54400
O216        O  0.26297150  0.52881757  0.44957751    -0.81300
O217        O  0.22814486  0.44104586  0.52723798    -0.79600
O218        O  0.22893493  0.56156764  0.46841475    -0.83800
O219        O  0.22177804  0.54969380  0.54810367    -0.78700
O220        O  0.26372015  0.46281626  0.45955548    -0.80500
O221        O  0.17548848  0.47399440  0.54587015    -0.83200
C222        C  0.24981948  0.55102466  0.55280619     0.97600
C223        C  0.25006552  0.55399573  0.44699786     1.05000
O224        O  0.21949356  0.50132495  0.49819155    -1.12200
O225        O  0.16185632  0.48282610  0.46634881    -0.74600
O226        O  0.17418233  0.53006476  0.45489966    -0.78100
O227        O  0.26806788  0.53692851  0.53201734    -0.78800
C228        C  0.15890085  0.50695035  0.44800041     0.96500
O229        O  0.16491359  0.52184371  0.53546603    -0.76800
O230        O  0.21586025  0.45336105  0.44810795    -0.82000
C231        C  0.25113398  0.44789173  0.54605506     0.99100
C232        C  0.24321946  0.44803023  0.44299717     1.05000
O233        O  0.26539082  0.47218589  0.54112472    -0.77600
C234        C  0.16127484  0.49753577  0.55324162     1.03300
C235        C  0.99788013  0.50259932  0.25101365    -0.02100
C236        C  0.99705000  0.49821137  0.74507496    -0.02100
C237        C  0.25435141  0.22382754  0.22052382     0.02600
C238        C  0.22973141  0.24309225  0.22462672     0.02600
C239        C  0.23170798  0.26705740  0.24928294    -0.17900
C240        C  0.25817185  0.27326072  0.26889895     0.02600
C241        C  0.28311750  0.25405800  0.26456943     0.02600
C242        C  0.28065535  0.22935523  0.24079307    -0.17900
H243        H  0.29943552  0.21435784  0.23790447     0.04600
H244        H  0.21241442  0.28127542  0.25291033     0.04600
C245        C  0.13932429  0.49679634  0.58315536    -0.11600
C246        C  0.14800909  0.50100560  0.62011526     0.03800
C247        C  0.12636362  0.50258049  0.64781843    -0.12200
C248        C  0.09606248  0.49899928  0.63922821     0.18700
C249        C  0.08741101  0.49379333  0.60227944    -0.09200
C250        C  0.10908038  0.49306943  0.57443352    -0.02200
H251        H  0.13315975  0.50648967  0.67618728     0.05200
C252        C  0.07372820  0.50072985  0.66904850     0.20700
H253        H  0.10236097  0.48951200  0.54595177     0.10400
C254        C  0.05319754  0.52405492  0.66870040    -0.15500
C255        C  0.02962875  0.52477032  0.69403568     0.03400
C256        C  0.02572621  0.50100882  0.72041958    -0.10900
C257        C  0.04902350  0.47977240  0.72286827    -0.00900
C258        C  0.07233412  0.47918591  0.69731379    -0.06100
H259        H  0.05494744  0.54132752  0.64759293     0.06400
H260        H  0.04946167  0.46296784  0.74438130     0.09800
Br261      Br  0.04653133  0.48658864  0.58878854    -0.05800
Br262      Br  0.18904129  0.50474107  0.63395642    -0.02700
Br263      Br  0.00237751  0.55742002  0.68699548     0.00100
Br264      Br  0.10068053  0.44728504  0.70105633    -0.04200
C265        C  0.13648358  0.50788463  0.41811063    -0.11600
C266        C  0.14062876  0.52515769  0.38550016     0.03800
C267        C  0.11898002  0.52453472  0.35766126    -0.12200
C268        C  0.09327334  0.50697501  0.36173533     0.18700
C269        C  0.08905858  0.48971681  0.39397301    -0.09200
C270        C  0.11060104  0.49022933  0.42183757    -0.02200
H271        H  0.12227721  0.53761108  0.33258148     0.05200
C272        C  0.07095430  0.50674026  0.33203774     0.20700
H273        H  0.10700215  0.47687075  0.44662302     0.10400
C274        C  0.07205295  0.48441776  0.30551532    -0.15500
C275        C  0.04981001  0.48152403  0.27854169     0.03400
C276        C  0.02592097  0.50296926  0.27667852    -0.10900
C277        C  0.02560842  0.52519350  0.30456565    -0.00900
C278        C  0.04762718  0.52722569  0.33157864    -0.06100
H279        H  0.08985094  0.46811872  0.30707224     0.06400
H280        H  0.00801118  0.54168990  0.30500586     0.09800
Br281      Br  0.05412499  0.46529856  0.40097386    -0.05800
Br282      Br  0.17594356  0.54852700  0.37595742    -0.02700
Br283      Br  0.05410991  0.44470553  0.25172909     0.00100
Br284      Br  0.04481403  0.55823314  0.36769092    -0.04200
C285        C  0.25884778  0.29949059  0.29426340    -0.11600
C286        C  0.25217398  0.32864854  0.28153532     0.03800
C287        C  0.25306502  0.35270723  0.30609820    -0.12200
C288        C  0.26073216  0.34852425  0.34347702     0.18700
C289        C  0.26749227  0.31948096  0.35618149    -0.09200
C290        C  0.26619191  0.29535689  0.33182116    -0.02200
H291        H  0.24733702  0.37479384  0.29606620     0.05200
C292        C  0.25841452  0.37397882  0.36956370     0.20700
H293        H  0.27084565  0.27318723  0.34238236     0.10400
C294        C  0.23671431  0.37244737  0.39742771    -0.15500
C295        C  0.23275329  0.39580377  0.42218801     0.03400
C296        C  0.25011557  0.42220106  0.41890667    -0.10900
C297        C  0.27243813  0.42362573  0.39150078    -0.00900
C298        C  0.27663112  0.39974115  0.36686180    -0.06100
H299        H  0.22268874  0.35276619  0.40000757     0.06400
H300        H  0.28614567  0.44348989  0.38872263     0.09800
Br301      Br  0.27916651  0.31165412  0.40648863    -0.05800
Br302      Br  0.24261498  0.33726101  0.23066546    -0.02700
Br303      Br  0.20402228  0.38931205  0.46118507     0.00100
Br304      Br  0.30780289  0.40283863  0.33053158    -0.04200
C305        C  0.99674397  0.47648809  0.22260845    -0.11600
C306        C  0.01705822  0.47488229  0.19201127     0.03800
C307        C  0.01347524  0.45317050  0.16496380    -0.12200
C308        C  0.98891939  0.43389830  0.16512505     0.18700
C309        C  0.96784767  0.43590577  0.19375683    -0.09200
C310        C  0.97178180  0.45679704  0.22172390    -0.02200
H311        H  0.03003038  0.45149576  0.14314502     0.05200
C312        C  0.98641837  0.41153532  0.13547549     0.20700
H313        H  0.95382406  0.45817115  0.24151141     0.10400
C314        C  0.98424839  0.38122656  0.14512136    -0.15500
C315        C  0.98391043  0.35941203  0.11785777     0.03400
C316        C  0.98854651  0.36765335  0.08061287    -0.10900
C317        C  0.99019701  0.39785244  0.07067971    -0.00900
C318        C  0.98811125  0.41985442  0.09769852    -0.06100
H319        H  0.98282655  0.37447747  0.17397257     0.06400
H320        H  0.99235280  0.40430224  0.04177617     0.09800
Br321      Br  0.93185944  0.41236313  0.19469963    -0.05800
Br322      Br  0.05131577  0.50021130  0.18443674    -0.02700
Br323      Br  0.97673665  0.31883279  0.13278375     0.00100
Br324      Br  0.98596278  0.46073229  0.08150033    -0.04200
C325        C  0.99821519  0.47062474  0.77220912    -0.11600
C326        C  0.99855479  0.44035320  0.75952385     0.03800
C327        C  0.99917551  0.41655903  0.78492364    -0.12200
C328        C  0.99904950  0.42165496  0.82295436     0.18700
C329        C  0.99789559  0.45081401  0.83604353    -0.09200
C330        C  0.99700808  0.47460338  0.81121106    -0.02200
H331        H  0.99981078  0.39384145  0.77494835     0.05200
C332        C  0.99998353  0.39664140  0.84941066     0.20700
H333        H  0.99416177  0.49612381  0.82363171     0.10400
C334        C  0.02754028  0.38838089  0.86442954    -0.15500
C335        C  0.02907333  0.36924385  0.89512114     0.03400
C336        C  0.00235653  0.35822213  0.91150270    -0.10900
C337        C  0.97483541  0.36557839  0.89489824    -0.00900
C338        C  0.97353498  0.38447207  0.86403966    -0.06100
H339        H  0.04791686  0.39803658  0.85324258     0.06400
H340        H  0.95406495  0.35697683  0.90622946     0.09800
Br341      Br  0.99693418  0.45928654  0.88814139    -0.05800
Br342      Br  0.99913992  0.42843811  0.70842319    -0.02700
Br343      Br  0.06839778  0.36132823  0.91405644     0.00100
Br344      Br  0.93515104  0.39438961  0.84385518    -0.04200
C345        C  0.07090661  0.25126066  0.09220290    -0.11600
C346        C  0.07732983  0.26976191  0.12283926     0.03800
C347        C  0.10213480  0.26397850  0.14526828    -0.12200
C348        C  0.12129505  0.24024066  0.13772698     0.18700
C349        C  0.11426626  0.22077260  0.10856871    -0.09200
C350        C  0.08909808  0.22619526  0.08630391    -0.02200
H351        H  0.10727385  0.27892223  0.16785855     0.05200
C352        C  0.14971512  0.23814249  0.15863524     0.20700
H353        H  0.08485800  0.21179656  0.06292007     0.10400
C354        C  0.14975142  0.22646565  0.19485445    -0.15500
C355        C  0.17572302  0.22736765  0.21659178     0.03400
C356        C  0.20225229  0.23979081  0.20195322    -0.10900
C357        C  0.20215393  0.25138517  0.16573490    -0.00900
C358        C  0.17618454  0.25079825  0.14419497    -0.06100
H359        H  0.12932287  0.21736975  0.20655499     0.06400
H360        H  0.22214962  0.26180616  0.15459349     0.09800
Br361      Br  0.13936276  0.18753775  0.09713512    -0.05800
Br362      Br  0.05383938  0.30381263  0.13548138    -0.02700
Br363      Br  0.17363160  0.21260490  0.26652533     0.00100
Br364      Br  0.17730076  0.26947340  0.09617160    -0.04200
C365        C  0.98896771  0.63370927  0.07430683    -0.11600
C366        C  0.00708012  0.60810890  0.07577932     0.03800
C367        C  0.00556017  0.58908314  0.10656386    -0.12200
C368        C  0.98638745  0.59526674  0.13623079     0.18700
C369        C  0.96818370  0.62071845  0.13481940    -0.09200
C370        C  0.96932839  0.63957018  0.10374667    -0.02200
H371        H  0.01956058  0.56943377  0.10754153     0.05200
C372        C  0.98693540  0.57526616  0.16881674     0.20700
H373        H  0.95553965  0.65937007  0.10307956     0.10400
C374        C  0.01121394  0.57685129  0.19285470    -0.15500
C375        C  0.01602541  0.55527718  0.22050661     0.03400
C376        C  0.99494829  0.53115263  0.22543207    -0.10900
C377        C  0.96959002  0.53143512  0.20159304    -0.00900
C378        C  0.96580326  0.55257193  0.17352302    -0.06100
H379        H  0.02770400  0.59432217  0.18842419     0.06400
H380        H  0.95282124  0.51404041  0.20395557     0.09800
Br381      Br  0.94259766  0.63117924  0.17530226    -0.05800
Br382      Br  0.03341438  0.59748126  0.03603939    -0.02700
Br383      Br  0.05457918  0.56063034  0.24343011     0.00100
Br384      Br  0.93259518  0.54810674  0.14042234    -0.04200
C385        C  0.98217591  0.63800371  0.90637488    -0.11600
C386        C  0.97520162  0.64718665  0.87003943     0.03800
C387        C  0.97670418  0.62668647  0.84115258    -0.12200
C388        C  0.98356350  0.59670168  0.84838090     0.18700
C389        C  0.98819825  0.58718359  0.88530915    -0.09200
C390        C  0.98819411  0.60796369  0.91377677    -0.02200
H391        H  0.97312156  0.63428682  0.81293183     0.05200
C392        C  0.98806092  0.57592844  0.81737192     0.20700
H393        H  0.99290975  0.60065863  0.94188105     0.10400
C394        C  0.01561274  0.56169260  0.81431373    -0.15500
C395        C  0.01961936  0.53790574  0.79024765     0.03400
C396        C  0.99555528  0.52813835  0.76716045    -0.10900
C397        C  0.96985115  0.54655447  0.76618079    -0.00900
C398        C  0.96542680  0.56916553  0.79193918    -0.06100
H399        H  0.03363860  0.56785185  0.83281311     0.06400
H400        H  0.95214027  0.54303588  0.74650919     0.09800
Br401      Br  0.99411479  0.54604866  0.89856595    -0.05800
Br402      Br  0.96486352  0.68752634  0.85828581    -0.02700
Br403      Br  0.05739238  0.51806060  0.79581953     0.00100
Br404      Br  0.92696880  0.58794236  0.79326491    -0.04200
C405        C  0.84928502  0.49203441  0.59292900    -0.11600
C406        C  0.85656279  0.51682354  0.61531028     0.03800
C407        C  0.87776589  0.51369096  0.64335469    -0.12200
C408        C  0.89167109  0.48629644  0.64986989     0.18700
C409        C  0.88283126  0.46108565  0.62988427    -0.09200
C410        C  0.86180104  0.46406683  0.60166895    -0.02200
H411        H  0.88435689  0.53303724  0.65923970     0.05200
C412        C  0.91794449  0.48568736  0.67401925     0.20700
H413        H  0.85617040  0.44454248  0.58561109     0.10400
C414        C  0.91445279  0.48646094  0.71237333    -0.15500
C415        C  0.93921029  0.48923024  0.73574556     0.03400
C416        C  0.96861737  0.49295650  0.72049408    -0.10900
C417        C  0.97124184  0.48987030  0.68145387    -0.00900
C418        C  0.94656289  0.48666575  0.65860553    -0.06100
H419        H  0.89219627  0.48525229  0.72417576     0.06400
H420        H  0.99251857  0.48908205  0.66758963     0.09800
Br421      Br  0.90004126  0.42259674  0.63900992    -0.05800
Br422      Br  0.83886145  0.55556858  0.60981716    -0.02700
Br423      Br  0.92964269  0.48906540  0.78776072     0.00100
Br424      Br  0.95324894  0.48459866  0.60604416    -0.04200
C425        C  0.85985997  0.49973435  0.42282762    -0.11600
C426        C  0.87857261  0.52479798  0.41631590     0.03800
C427        C  0.89972752  0.52412711  0.38789136    -0.12200
C428        C  0.90205003  0.49954618  0.36435346     0.18700
C429        C  0.88353462  0.47446815  0.37087513    -0.09200
C430        C  0.86304140  0.47463619  0.40013260    -0.02200
H431        H  0.91456784  0.54307156  0.38411903     0.05200
C432        C  0.92489257  0.50012364  0.33449062     0.20700
H433        H  0.84893663  0.45522225  0.40448729     0.10400
C434        C  0.94611153  0.47746216  0.33326780    -0.15500
C435        C  0.96828619  0.47697825  0.30606933     0.03400
C436        C  0.97101405  0.50073131  0.27944222    -0.10900
C437        C  0.95011112  0.52432496  0.28266801    -0.00900
C438        C  0.92693859  0.52367159  0.30862317    -0.06100
H439        H  0.94539939  0.45973312  0.35385629     0.06400
H440        H  0.95155049  0.54419972  0.26576816     0.09800
Br441      Br  0.88409663  0.43983285  0.33991191    -0.05800
Br442      Br  0.87757135  0.56053885  0.44536397    -0.02700
Br443      Br  0.99293589  0.44213027  0.30812650     0.00100
Br444      Br  0.89837479  0.55553685  0.30659760    -0.04200
C445        C  0.48274441  0.14815327  0.59354522    -0.11600
C446        C  0.46501233  0.12207943  0.59352354     0.03800
C447        C  0.46597023  0.10259609  0.62393061    -0.12200
C448        C  0.48442606  0.10863795  0.65435504     0.18700
C449        C  0.50083030  0.13538119  0.65526664    -0.09200
C450        C  0.49963790  0.15499822  0.62514348    -0.02200
H451        H  0.45370812  0.08172776  0.62286299     0.05200
C452        C  0.49025049  0.08450808  0.68117922     0.20700
H453        H  0.51243340  0.17548958  0.62612089     0.10400
C454        C  0.51770643  0.07007625  0.67933079    -0.15500
C455        C  0.52255556  0.04327584  0.69821532     0.03400
C456        C  0.49938268  0.03018938  0.72056213    -0.10900
C457        C  0.47373622  0.04808970  0.72653619    -0.00900
C458        C  0.46827856  0.07372054  0.70543048    -0.06100
H459        H  0.53483315  0.07864184  0.66076113     0.06400
H460        H  0.45698105  0.04233489  0.74677154     0.09800
Br461      Br  0.52614767  0.14530650  0.69628558    -0.05800
Br462      Br  0.44179777  0.11011936  0.55144919    -0.02700
Br463      Br  0.56015567  0.02513807  0.68678030     0.00100
Br464      Br  0.43009798  0.09268146  0.70968052    -0.04200
C465        C  0.48094919  0.14360621  0.42342046    -0.11600
C466        C  0.47986191  0.15248199  0.38591484     0.03800
C467        C  0.48125812  0.13098096  0.35802028    -0.12200
C468        C  0.48348284  0.10055268  0.36703320     0.18700
C469        C  0.48359508  0.09168182  0.40460444    -0.09200
C470        C  0.48265900  0.11318929  0.43242959    -0.02200
H471        H  0.48140486  0.13804738  0.32922813     0.05200
C472        C  0.48768065  0.07844748  0.33721873     0.20700
H473        H  0.48341496  0.10617053  0.46122862     0.10400
C474        C  0.51506721  0.06389206  0.33436158    -0.15500
C475        C  0.51969743  0.04138389  0.30840795     0.03400
C476        C  0.49641749  0.03282097  0.28334602    -0.10900
C477        C  0.46920617  0.04892465  0.28604916    -0.00900
C478        C  0.46477978  0.07114945  0.31246658    -0.06100
H479        H  0.53301053  0.06987053  0.35306766     0.06400
H480        H  0.44998815  0.04324472  0.26960028     0.09800
Br481      Br  0.48464556  0.05041196  0.41913129    -0.05800
Br482      Br  0.47878124  0.19376654  0.37162230    -0.02700
Br483      Br  0.55937598  0.02512733  0.30899380     0.00100
Br484      Br  0.42600871  0.08904407  0.31589615    -0.04200
C485        C  0.31118747  0.25823658  0.28633441    -0.11600
C486        C  0.32964765  0.28370505  0.28218447     0.03800
C487        C  0.35358569  0.28845360  0.30668334    -0.12200
C488        C  0.35989005  0.26778317  0.33502595     0.18700
C489        C  0.34254485  0.24154015  0.33770421    -0.09200
C490        C  0.31850932  0.23695670  0.31355859    -0.02200
H491        H  0.36710320  0.30843107  0.30385804     0.05200
C492        C  0.38367468  0.27391214  0.36276111     0.20700
H493        H  0.30484366  0.21711228  0.31683269     0.10400
C494        C  0.37522529  0.28224768  0.39866371    -0.15500
C495        C  0.39588857  0.28184760  0.42781394     0.03400
C496        C  0.42574966  0.27342172  0.42130516    -0.10900
C497        C  0.43481776  0.26775374  0.38475647    -0.00900
C498        C  0.41399942  0.26778338  0.35559058    -0.06100
H499        H  0.35203613  0.28723192  0.40449895     0.06400
H500        H  0.45755428  0.26083691  0.37936545     0.09800
Br501      Br  0.35078867  0.21141113  0.37433056    -0.05800
Br502      Br  0.32356542  0.31210460  0.24293926    -0.02700
Br503      Br  0.38187289  0.29082745  0.47673312     0.00100
Br504      Br  0.42723108  0.25615928  0.30730625    -0.04200
C505        C  0.36898054  0.99121665  0.08118001    -0.11600
C506        C  0.36064290  0.00348656  0.11543015     0.03800
C507        C  0.38097165  0.00386221  0.14467649    -0.12200
C508        C  0.40959262  0.99188461  0.14046111     0.18700
C509        C  0.41740469  0.97801064  0.10692700    -0.09200
C510        C  0.39703944  0.97772491  0.07753912    -0.02200
H511        H  0.37454162  0.01374228  0.17078045     0.05200
C512        C  0.43111898  0.99482617  0.17110626     0.20700
H513        H  0.40341324  0.96770503  0.05149554     0.10400
C514        C  0.43936119  0.96963904  0.19143430    -0.15500
C515        C  0.46005998  0.97132969  0.22040969     0.03400
C516        C  0.47289922  0.99969296  0.23043499    -0.10900
C517        C  0.46514060  0.02438393  0.20768739    -0.00900
C518        C  0.44375038  0.02247902  0.17979010    -0.06100
H519        H  0.42985276  0.94820441  0.18410928     0.06400
H520        H  0.47568920  0.04580583  0.21183062     0.09800
Br521      Br  0.45595223  0.96042955  0.09946650    -0.05800
Br522      Br  0.32119322  0.01826462  0.12443268    -0.02700
Br523      Br  0.46976867  0.93242543  0.24026959     0.00100
Br524      Br  0.43290609  0.05834809  0.15376232    -0.04200
C525        C  0.36719340  0.98232717  0.90946590    -0.11600
C526        C  0.37722211  0.95479844  0.89503301     0.03800
C527        C  0.39662625  0.95466875  0.86457892    -0.12200
C528        C  0.40666417  0.98143578  0.84858172     0.18700
C529        C  0.39673174  0.00871722  0.86262070    -0.09200
C530        C  0.37710615  0.00900483  0.89255413    -0.02200
H531        H  0.40495921  0.93364542  0.85429435     0.05200
C532        C  0.43048787  0.98104177  0.82060201     0.20700
H533        H  0.36998480  0.03041378  0.90295950     0.10400
C534        C  0.42360950  0.98443555  0.78312991    -0.15500
C535        C  0.44622404  0.98858710  0.75668791     0.03400
C536        C  0.47678099  0.99171417  0.76801473    -0.10900
C537        C  0.48288718  0.98431144  0.80570156    -0.00900
C538        C  0.46032154  0.97964624  0.83160779    -0.06100
H539        H  0.40042731  0.98437752  0.77450800     0.06400
H540        H  0.50532663  0.98162663  0.81599296     0.09800
Br541      Br  0.41092897  0.04620322  0.84320749    -0.05800
Br542      Br  0.36790779  0.91668914  0.91699425    -0.02700
Br543      Br  0.43233457  0.99079835  0.70642176     0.00100
Br544      Br  0.47140143  0.97238013  0.88228969    -0.04200
C545        C  0.25812862  0.07302447  0.07461902    -0.11600
C546        C  0.22986032  0.08566642  0.08164990     0.03800
C547        C  0.22731983  0.10942370  0.10672410    -0.12200
C548        C  0.25256732  0.12062296  0.12521776     0.18700
C549        C  0.28044458  0.10724304  0.11928038    -0.09200
C550        C  0.28306647  0.08408457  0.09396828    -0.02200
H551        H  0.20576797  0.11975780  0.11100355     0.05200
C552        C  0.25031822  0.14736096  0.14890652     0.20700
H553        H  0.30507681  0.07511017  0.08873588     0.10400
C554        C  0.24597181  0.14390219  0.18719527    -0.15500
C555        C  0.24703248  0.16861061  0.21072382     0.03400
C556        C  0.25266074  0.19733219  0.19607092    -0.10900
C557        C  0.25670785  0.20079643  0.15767922    -0.00900
C558        C  0.25542957  0.17612029  0.13412226    -0.06100
H559        H  0.24234280  0.12184719  0.19887210     0.06400
H560        H  0.26119516  0.22270327  0.14605287     0.09800
Br561      Br  0.31588796  0.12061584  0.14415741    -0.05800
Br562      Br  0.19475176  0.07346358  0.05534892    -0.02700
Br563      Br  0.24100292  0.16209822  0.26276408     0.00100
Br564      Br  0.26154614  0.18243025  0.08199703    -0.04200
C565        C  0.52679445  0.00545127  0.23145161    -0.11600
C566        C  0.54185549  0.03182775  0.21821595     0.03800
C567        C  0.56400420  0.02971227  0.19077897    -0.12200
C568        C  0.57032578  0.00267068  0.17352284     0.18700
C569        C  0.55484059  0.97701339  0.18461639    -0.09200
C570        C  0.53382912  0.97854442  0.21298785    -0.02200
H571        H  0.57540042  0.04973486  0.18128831     0.05200
C572        C  0.59173373  0.00190613  0.14232997     0.20700
H573        H  0.52239235  0.95822373  0.22007549     0.10400
C574        C  0.61883067  0.98669577  0.14660608    -0.15500
C575        C  0.63928488  0.98506364  0.11734754     0.03400
C576        C  0.63275267  0.99902966  0.08308031    -0.10900
C577        C  0.60567628  0.01440378  0.07902378    -0.00900
C578        C  0.58510477  0.01565947  0.10812927    -0.06100
H579        H  0.62412125  0.97617328  0.17293320     0.06400
H580        H  0.60030248  0.02515943  0.05286866     0.09800
Br581      Br  0.55967988  0.93964792  0.15973904    -0.05800
Br582      Br  0.53256836  0.07246418  0.23053796    -0.02700
Br583      Br  0.67648112  0.96535318  0.12690542     0.00100
Br584      Br  0.54768030  0.03522257  0.09937859    -0.04200
C585        C  0.53284546  0.00312879  0.76324871    -0.11600
C586        C  0.55936006  0.98515370  0.76244983     0.03800
C587        C  0.58161422  0.98944072  0.78920195    -0.12200
C588        C  0.57903987  0.01123945  0.81645157     0.18700
C589        C  0.55502851  0.03106196  0.81506989    -0.09200
C590        C  0.53273247  0.02718041  0.78869978    -0.02200
H591        H  0.60099745  0.97502871  0.78944200     0.05200
C592        C  0.59988994  0.01099930  0.84813731     0.20700
H593        H  0.51371539  0.04199366  0.78992621     0.10400
C594        C  0.61928839  0.03512178  0.85397735    -0.15500
C595        C  0.63800114  0.03591951  0.88508190     0.03400
C596        C  0.63765214  0.01182728  0.91091070    -0.10900
C597        C  0.61827642  0.98763461  0.90435977    -0.00900
C598        C  0.59953971  0.98712094  0.87359534    -0.06100
H599        H  0.61963613  0.05355759  0.83437161     0.06400
H600        H  0.61730466  0.96892581  0.92350349     0.09800
Br601      Br  0.54995045  0.06211162  0.85080196    -0.05800
Br602      Br  0.57058898  0.95606989  0.72595463    -0.02700
Br603      Br  0.66325298  0.07052744  0.88953123     0.00100
Br604      Br  0.57279473  0.95376124  0.86863321    -0.04200
C605        C  0.49754700  0.84897202  0.59230446    -0.11600
C606        C  0.52396613  0.85489147  0.61252924     0.03800
C607        C  0.52378119  0.87640818  0.64022452    -0.12200
C608        C  0.49767825  0.89207083  0.64831916     0.18700
C609        C  0.47091007  0.88484489  0.63006817    -0.09200
C610        C  0.47094109  0.86327790  0.60243698    -0.02200
H611        H  0.54438929  0.88188015  0.65441643     0.05200
C612        C  0.49974739  0.91877889  0.67144462     0.20700
H613        H  0.45039557  0.85881413  0.58760223     0.10400
C614        C  0.49831368  0.94646531  0.65387778    -0.15500
C615        C  0.49896106  0.97300184  0.67374739     0.03400
C616        C  0.50332760  0.97222061  0.71328959    -0.10900
C617        C  0.50430918  0.94344413  0.73025806    -0.00900
C618        C  0.50271842  0.91718861  0.70988413    -0.06100
H619        H  0.49536465  0.94725911  0.62405240     0.06400
H620        H  0.50694515  0.94129716  0.75996659     0.09800
Br621      Br  0.43419181  0.90497519  0.64086430    -0.05800
Br622      Br  0.56110292  0.83475715  0.60394262    -0.02700
Br623      Br  0.48878086  0.00629991  0.64207958     0.00100
Br624      Br  0.50431484  0.87965989  0.73567688    -0.04200
C625        C  0.50287185  0.86383279  0.42567051    -0.11600
C626        C  0.51031602  0.85856307  0.38840925     0.03800
C627        C  0.51111454  0.88226223  0.36311218    -0.12200
C628        C  0.50537760  0.91151412  0.37450536     0.18700
C629        C  0.49827250  0.91684506  0.41198344    -0.09200
C630        C  0.49677702  0.89296651  0.43715007    -0.02200
H631        H  0.51590566  0.87779990  0.33424217     0.05200
C632        C  0.50481686  0.93557940  0.34622641     0.20700
H633        H  0.49149265  0.89721927  0.46594481     0.10400
C634        C  0.47814863  0.95079946  0.33998712    -0.15500
C635        C  0.47569616  0.97234220  0.31200773     0.03400
C636        C  0.50053792  0.97896051  0.28818898    -0.10900
C637        C  0.52733726  0.96312898  0.29521220    -0.00900
C638        C  0.52961723  0.94198600  0.32366786    -0.06100
H639        H  0.45869145  0.94533134  0.35666620     0.06400
H640        H  0.54747435  0.96767052  0.27971118     0.09800
Br641      Br  0.49159439  0.95630609  0.43043396    -0.05800
Br642      Br  0.51815881  0.81924088  0.37034115    -0.02700
Br643      Br  0.43623089  0.98866224  0.30689022     0.00100
Br644      Br  0.56777124  0.92359883  0.33166573    -0.04200
C645        C  0.73548349  0.42985928  0.41411896    -0.11600
C646        C  0.75359417  0.42837571  0.38213753     0.03800
C647        C  0.75136871  0.40397634  0.35840760    -0.12200
C648        C  0.73139764  0.38055528  0.36597268     0.18700
C649        C  0.71200051  0.38275234  0.39667410    -0.09200
C650        C  0.71395584  0.40746186  0.42030763    -0.02200
H651        H  0.76634604  0.40255895  0.33487525     0.05200
C652        C  0.73383064  0.35286088  0.34390539     0.20700
H653        H  0.70041463  0.40787174  0.44520469     0.10400
C654        C  0.75804287  0.33376958  0.35047750    -0.15500
C655        C  0.76217089  0.30800485  0.32940741     0.03400
C656        C  0.74207491  0.30105811  0.30057603    -0.10900
C657        C  0.71810030  0.32056146  0.29368248    -0.00900
C658        C  0.71364393  0.34599948  0.31534375    -0.06100
H659        H  0.77377995  0.33890494  0.37234234     0.06400
H660        H  0.70279855  0.31606670  0.27119586     0.09800
Br661      Br  0.68486853  0.35107623  0.40951636    -0.05800
Br662      Br  0.78321819  0.45826403  0.37103758    -0.02700
Br663      Br  0.79502939  0.28272851  0.34231305     0.00100
Br664      Br  0.67999725  0.37094027  0.30471241    -0.04200
C665        C  0.69559406  0.25361104  0.30104904    -0.11600
C666        C  0.69636613  0.24393705  0.33823613     0.03800
C667        C  0.67066166  0.24571401  0.36020297    -0.12200
C668        C  0.64399204  0.25726011  0.34570245     0.18700
C669        C  0.64339373  0.26763822  0.30877094    -0.09200
C670        C  0.66894968  0.26525316  0.28652588    -0.02200
H671        H  0.67134182  0.23767060  0.38858654     0.05200
C672        C  0.61692738  0.25709569  0.36935248     0.20700
H673        H  0.66819551  0.27290507  0.25799130     0.10400
C674        C  0.61488757  0.27709433  0.39892490    -0.15500
C675        C  0.59136180  0.27508772  0.42456013     0.03400
C676        C  0.56944858  0.25253418  0.42087806    -0.10900
C677        C  0.57106520  0.23324734  0.39042645    -0.00900
C678        C  0.59447475  0.23536175  0.36483251    -0.06100
H679        H  0.63226621  0.29367054  0.40279786     0.06400
H680        H  0.55458203  0.21567874  0.38726432     0.09800
Br681      Br  0.60845244  0.28593835  0.28813833    -0.05800
Br682      Br  0.73181504  0.22734759  0.35975191    -0.02700
Br683      Br  0.59229683  0.30162349  0.46600360     0.00100
Br684      Br  0.59604602  0.20657750  0.32582315    -0.04200
C685        C  0.80198934  0.24062094  0.21078932    -0.11600
C686        C  0.83075666  0.23780246  0.22645423     0.03800
C687        C  0.85602031  0.23664743  0.20348090    -0.12200
C688        C  0.85307245  0.23768343  0.16484068     0.18700
C689        C  0.82433366  0.23901037  0.14913484    -0.09200
C690        C  0.79917482  0.24091041  0.17202099    -0.02200
H691        H  0.87806234  0.23559488  0.21578672     0.05200
C692        C  0.87988237  0.24129347  0.14117604     0.20700
H693        H  0.77734096  0.24316616  0.15944651     0.10400
C694        C  0.89509789  0.21632243  0.12752770    -0.15500
C695        C  0.91794316  0.21969713  0.10093908     0.03400
C696        C  0.92518579  0.24842759  0.08717827    -0.10900
C697        C  0.91093641  0.27327859  0.10271559    -0.00900
C698        C  0.88879012  0.26994688  0.12958963    -0.06100
H699        H  0.88851011  0.19416904  0.13663171     0.06400
H700        H  0.91663638  0.29560766  0.09331298     0.09800
Br701      Br  0.81862546  0.23907142  0.09643546    -0.05800
Br702      Br  0.83679839  0.23491778  0.27889218    -0.02700
Br703      Br  0.93674837  0.18439953  0.08269675     0.00100
Br704      Br  0.87044730  0.30527290  0.14868131    -0.04200
C705        C  0.75120036  0.06950980  0.09087970    -0.11600
C706        C  0.73387603  0.07107023  0.12360425     0.03800
C707        C  0.73788602  0.09464524  0.14824930    -0.12200
C708        C  0.75841015  0.11749738  0.14056469     0.18700
C709        C  0.77676571  0.11540826  0.10892125    -0.09200
C710        C  0.77336107  0.09129894  0.08461009    -0.02200
H711        H  0.72364657  0.09608155  0.17249040     0.05200
C712        C  0.75773754  0.14467829  0.16367798     0.20700
H713        H  0.78641677  0.09089242  0.05930490     0.10400
C714        C  0.77181270  0.14479426  0.19841334    -0.15500
C715        C  0.76981406  0.16971101  0.22154926     0.03400
C716        C  0.75369368  0.19504037  0.20992301    -0.10900
C717        C  0.73908799  0.19461001  0.17556716    -0.00900
C718        C  0.74098593  0.16972887  0.15252653    -0.06100
H719        H  0.78400056  0.12531677  0.20773420     0.06400
H720        H  0.72619700  0.21375299  0.16664255     0.09800
Br721      Br  0.80493772  0.14627388  0.09649483    -0.05800
Br722      Br  0.70298491  0.04266178  0.13501892    -0.02700
Br723      Br  0.78802561  0.16766329  0.26952610     0.00100
Br724      Br  0.71940654  0.17041386  0.10661884    -0.04200
C725        C  0.70591538  0.75011598  0.30045056    -0.11600
C726        C  0.67802011  0.74972525  0.28216096     0.03800
C727        C  0.65161603  0.74667708  0.30273995    -0.12200
C728        C  0.65246996  0.74433687  0.34147674     0.18700
C729        C  0.68022337  0.74496680  0.35975371    -0.09200
C730        C  0.70661152  0.74780502  0.33925830    -0.02200
H731        H  0.63028337  0.74681974  0.28857084     0.05200
C732        C  0.62433484  0.74487190  0.36287677     0.20700
H733        H  0.72777214  0.74875931  0.35373463     0.10400
C734        C  0.61253038  0.71848125  0.37841336    -0.15500
C735        C  0.58828867  0.71941517  0.40320010     0.03400
C736        C  0.57604263  0.74718564  0.41304760    -0.10900
C737        C  0.58700568  0.77321698  0.39569104    -0.00900
C738        C  0.61072749  0.77223955  0.37074220    -0.06100
H739        H  0.62292959  0.69729863  0.37235502     0.06400
H740        H  0.57780864  0.79474834  0.40274213     0.09800
Br741      Br  0.68298580  0.74366982  0.41279990    -0.05800
Br742      Br  0.67461358  0.75320885  0.22925552    -0.02700
Br743      Br  0.57472216  0.68268558  0.42509807     0.00100
Br744      Br  0.62523927  0.80921947  0.35025073    -0.04200
C745        C  0.74142517  0.57379704  0.41715278    -0.11600
C746        C  0.76119892  0.57656325  0.38686892     0.03800
C747        C  0.75924550  0.60115873  0.36303504    -0.12200
C748        C  0.73847011  0.62376762  0.36958555     0.18700
C749        C  0.71796379  0.62061025  0.39902096    -0.09200
C750        C  0.71926272  0.59542471  0.42226632    -0.02200
H751        H  0.77524071  0.60359952  0.34062793     0.05200
C752        C  0.74132021  0.65177683  0.34806945     0.20700
H753        H  0.70452649  0.59393845  0.44605989     0.10400
C754        C  0.72665056  0.65475990  0.31397680    -0.15500
C755        C  0.73155547  0.67990435  0.29144540     0.03400
C756        C  0.75137104  0.70250563  0.30306188    -0.10900
C757        C  0.76608969  0.69937968  0.33713292    -0.00900
C758        C  0.76112421  0.67431088  0.35965330    -0.06100
H759        H  0.71186867  0.63720145  0.30455555     0.06400
H760        H  0.78127948  0.71665866  0.34636135     0.09800
Br761      Br  0.69000237  0.65146403  0.41059448    -0.05800
Br762      Br  0.79280071  0.54854884  0.37860925    -0.02700
Br763      Br  0.71194221  0.68162943  0.24432827     0.00100
Br764      Br  0.78218918  0.67138272  0.40581305    -0.04200
C765        C  0.76772382  0.80633068  0.20962764    -0.11600
C766        C  0.76114950  0.80134242  0.17208176     0.03800
C767        C  0.76161187  0.82509004  0.14688080    -0.12200
C768        C  0.76729184  0.85433234  0.15858855     0.18700
C769        C  0.77314120  0.85952546  0.19639862    -0.09200
C770        C  0.77349749  0.83551079  0.22155093    -0.02200
H771        H  0.75585707  0.82097419  0.11819733     0.05200
C772        C  0.76163905  0.87896702  0.13191970     0.20700
H773        H  0.77738741  0.83970316  0.25068226     0.10400
C774        C  0.73275665  0.88148121  0.11764402    -0.15500
C775        C  0.72589452  0.90236556  0.09023048     0.03400
C776        C  0.74808066  0.92284458  0.07754912    -0.10900
C777        C  0.77715398  0.92045585  0.09223562    -0.00900
C778        C  0.78420173  0.89822317  0.11849488    -0.06100
H779        H  0.71541952  0.86633541  0.12731462     0.06400
H780        H  0.79473390  0.93513192  0.08223211     0.09800
Br781      Br  0.77787825  0.89904870  0.21553308    -0.05800
Br782      Br  0.74778210  0.76322749  0.15470909    -0.02700
Br783      Br  0.68560203  0.90012040  0.07165747     0.00100
Br784      Br  0.82514547  0.89328568  0.13285549    -0.04200
C785        C  0.93127017  0.76055675  0.07964848    -0.11600
C786        C  0.93636056  0.74999220  0.11595750     0.03800
C787        C  0.91417286  0.75289860  0.14308867    -0.12200
C788        C  0.88663693  0.76603352  0.13445585     0.18700
C789        C  0.88226160  0.77836793  0.09881754    -0.09200
C790        C  0.90450643  0.77549332  0.07167793    -0.02200
H791        H  0.91781147  0.74348890  0.17046639     0.05200
C792        C  0.86185695  0.76390165  0.16164731     0.20700
H793        H  0.90008809  0.78319593  0.04366875     0.10400
C794        C  0.86064612  0.78363677  0.19155602    -0.15500
C795        C  0.83740799  0.78172466  0.21763971     0.03400
C796        C  0.81472645  0.76002081  0.21368314    -0.10900
C797        C  0.81679745  0.73951016  0.18467109    -0.00900
C798        C  0.84000413  0.74134198  0.15875371    -0.06100
H799        H  0.87788304  0.80044245  0.19469098     0.06400
H800        H  0.79990019  0.72233367  0.18173473     0.09800
Br801      Br  0.84553654  0.79763017  0.08555366    -0.05800
Br802      Br  0.97259695  0.72970271  0.12884791    -0.02700
Br803      Br  0.83867689  0.80787185  0.25935442     0.00100
Br804      Br  0.84115026  0.71228939  0.12006517    -0.04200
C805        C  0.25875549  0.57550209  0.41767383    -0.11600
C806        C  0.26300029  0.60595708  0.42576873     0.03800
C807        C  0.26589504  0.62678563  0.39706087    -0.12200
C808        C  0.26298156  0.61823196  0.35999281     0.18700
C809        C  0.26012986  0.58765296  0.35166540    -0.09200
C810        C  0.25848476  0.56651131  0.38050610    -0.02200
H811        H  0.26881432  0.65013038  0.40375948     0.05200
C812        C  0.26106194  0.64191680  0.33117407     0.20700
H813        H  0.25482644  0.54326467  0.37388446     0.10400
C814        C  0.28248495  0.64350345  0.30275077    -0.15500
C815        C  0.28184982  0.66663097  0.27641432     0.03400
C816        C  0.25999839  0.68905823  0.27895424    -0.10900
C817        C  0.23825484  0.68709185  0.30681620    -0.00900
C818        C  0.23855165  0.66384554  0.33272680    -0.06100
H819        H  0.29984442  0.62681365  0.30118869     0.06400
H820        H  0.22121667  0.70410006  0.30878764     0.09800
Br821      Br  0.25545799  0.57387098  0.30181460    -0.05800
Br822      Br  0.26363888  0.62085681  0.47541240    -0.02700
Br823      Br  0.31046506  0.66595047  0.23692136     0.00100
Br824      Br  0.20729653  0.66311494  0.36927084    -0.04200
C825        C  0.30780937  0.73557905  0.28166234    -0.11600
C826        C  0.33746133  0.73605588  0.26822431     0.03800
C827        C  0.36154607  0.73405443  0.29291025    -0.12200
C828        C  0.35687486  0.73142042  0.33124566     0.18700
C829        C  0.32732141  0.73045810  0.34478440    -0.09200
C830        C  0.30317283  0.73263568  0.32012027    -0.02200
H831        H  0.38414630  0.73526494  0.28219336     0.05200
C832        C  0.38281021  0.73491250  0.35659928     0.20700
H833        H  0.28065351  0.73264872  0.33112115     0.10400
C834        C  0.39548633  0.76330913  0.35964198    -0.15500
C835        C  0.41859365  0.76900088  0.38458978     0.03400
C836        C  0.42966007  0.74584552  0.40786584    -0.10900
C837        C  0.41805669  0.71683663  0.40319306    -0.00900
C838        C  0.39483209  0.71127459  0.37778801    -0.06100
H839        H  0.38685636  0.78147374  0.34284024     0.06400
H840        H  0.42618822  0.69866061  0.42031728     0.09800
Br841      Br  0.31889871  0.72803995  0.39687276    -0.05800
Br842      Br  0.34650548  0.73886285  0.21637234    -0.02700
Br843      Br  0.43364486  0.80926566  0.38459926     0.00100
Br844      Br  0.38002873  0.67130764  0.37301832    -0.04200
C845        C  0.20347360  0.74853714  0.18673145    -0.11600
C846        C  0.20395609  0.74456941  0.14804583     0.03800
C847        C  0.17750811  0.74707126  0.12755848    -0.12200
C848        C  0.15020132  0.75309331  0.14506790     0.18700
C849        C  0.14966470  0.75693084  0.18376100    -0.09200
C850        C  0.17617628  0.75470206  0.20423562    -0.02200
H851        H  0.17806128  0.74336731  0.09793743     0.05200
C852        C  0.12238952  0.75234936  0.12275455     0.20700
H853        H  0.17550582  0.75763136  0.23398609     0.10400
C854        C  0.10381886  0.72717965  0.12539069    -0.15500
C855        C  0.07978145  0.72339320  0.10112310     0.03400
C856        C  0.07381326  0.74514490  0.07360055    -0.10900
C857        C  0.09127273  0.77123520  0.07244231    -0.00900
C858        C  0.11559811  0.77482656  0.09657168    -0.06100
H859        H  0.10873073  0.70984435  0.14556689     0.06400
H860        H  0.08699701  0.78811336  0.05145905     0.09800
Br861      Br  0.11327219  0.76521097  0.20969966    -0.05800
Br862      Br  0.23963891  0.73359201  0.12228820    -0.02700
Br863      Br  0.05594267  0.68791134  0.10665893     0.00100
Br864      Br  0.13957581  0.81023204  0.09215845    -0.04200
C865        C  0.24859131  0.79704338  0.19153646    -0.11600
C866        C  0.26831976  0.80590771  0.16300932     0.03800
C867        C  0.26362375  0.83272411  0.14397474    -0.12200
C868        C  0.23969642  0.85135334  0.15309900     0.18700
C869        C  0.21997947  0.84274208  0.18162981    -0.09200
C870        C  0.22452474  0.81572895  0.20063264    -0.02200
H871        H  0.27895698  0.83930833  0.12209764     0.05200
C872        C  0.23712604  0.88013542  0.13311745     0.20700
H873        H  0.20939671  0.80939182  0.22281599     0.10400
C874        C  0.21972979  0.88185598  0.10085933    -0.15500
C875        C  0.22328086  0.90573528  0.07583717     0.03400
C876        C  0.24447416  0.92830759  0.08316128    -0.10900
C877        C  0.25991529  0.92771665  0.11702799    -0.00900
C878        C  0.25639255  0.90388435  0.14188588    -0.06100
H879        H  0.20512402  0.86345250  0.09371071     0.06400
H880        H  0.27644185  0.94476485  0.12291631     0.09800
Br881      Br  0.18723940  0.86751225  0.19599128    -0.05800
Br882      Br  0.30178281  0.78219412  0.14837987    -0.02700
Br883      Br  0.20232186  0.90386210  0.02959379     0.00100
Br884      Br  0.28067093  0.90298582  0.18567525    -0.04200
C885        C  0.31247408  0.74017411  0.70564569    -0.11600
C886        C  0.31716623  0.75805749  0.67383658     0.03800
C887        C  0.34111972  0.75215634  0.65017787    -0.12200
C888        C  0.36095418  0.72873687  0.65762154     0.18700
C889        C  0.35723047  0.71171208  0.69025384    -0.09200
C890        C  0.33307881  0.71746834  0.71391614    -0.02200
H891        H  0.34417981  0.76579313  0.62551702     0.05200
C892        C  0.38549906  0.72340361  0.63091326     0.20700
H893        H  0.32999444  0.70378368  0.73849945     0.10400
C894        C  0.41470051  0.73208721  0.64010772    -0.15500
C895        C  0.43687337  0.73428307  0.61276977     0.03400
C896        C  0.42987456  0.72787230  0.57563950    -0.10900
C897        C  0.40130271  0.71706826  0.56693759    -0.00900
C898        C  0.37924987  0.71445578  0.59435882    -0.06100
H899        H  0.41972446  0.73915230  0.66806941     0.06400
H900        H  0.39564122  0.71226898  0.53839819     0.09800
Br901      Br  0.38374354  0.67972752  0.70272934    -0.05800
Br902      Br  0.29121187  0.79016876  0.66033551    -0.02700
Br903      Br  0.47535610  0.74974719  0.62636671     0.00100
Br904      Br  0.34037574  0.70016762  0.58044488    -0.04200
C905        C  0.26545422  0.69423181  0.70431106    -0.11600
C906        C  0.25673168  0.69530994  0.66680968     0.03800
C907        C  0.25967236  0.67002526  0.64463816    -0.12200
C908        C  0.27108536  0.64332299  0.65923867     0.18700
C909        C  0.28043800  0.64239217  0.69649746    -0.09200
C910        C  0.27741708  0.66768748  0.71876131    -0.02200
H911        H  0.25207451  0.67088637  0.61613912     0.05200
C912        C  0.26967587  0.61616686  0.63611575     0.20700
H913        H  0.28446649  0.66668722  0.74745922     0.10400
C914        C  0.28977399  0.61239827  0.60658462    -0.15500
C915        C  0.28558317  0.58953630  0.58057505     0.03400
C916        C  0.26034654  0.57054489  0.58342071    -0.10900
C917        C  0.24146384  0.57350956  0.61437660    -0.00900
C918        C  0.24592400  0.59585091  0.64048849    -0.06100
H919        H  0.30815376  0.62796361  0.60301132     0.06400
H920        H  0.22203361  0.55929336  0.61732888     0.09800
Br921      Br  0.29727862  0.60704597  0.71799603    -0.05800
Br922      Br  0.23924426  0.73021767  0.64506999    -0.02700
Br923      Br  0.31370519  0.58708798  0.54061163     0.00100
Br924      Br  0.21714006  0.59942350  0.67969283    -0.04200
C925        C  0.25200433  0.79907535  0.79632529    -0.11600
C926        C  0.25105247  0.82779727  0.77995516     0.03800
C927        C  0.24780571  0.85304692  0.80209688    -0.12200
C928        C  0.24537999  0.85038549  0.84066647     0.18700
C929        C  0.24593734  0.82182817  0.85718206    -0.09200
C930        C  0.24939119  0.79652689  0.83507424    -0.02200
H931        H  0.24779116  0.87493474  0.78925535     0.05200
C932        C  0.24631346  0.87765890  0.86345387     0.20700
H933        H  0.25054440  0.77473290  0.84831207     0.10400
C934        C  0.22024978  0.88880282  0.88013963    -0.15500
C935        C  0.22178156  0.91277125  0.90504285     0.03400
C936        C  0.24973502  0.92555467  0.91350666    -0.10900
C937        C  0.27526075  0.91556271  0.89468143    -0.00900
C938        C  0.27379679  0.89184095  0.87010649    -0.06100
H939        H  0.19893239  0.87816346  0.87481762     0.06400
H940        H  0.29691128  0.92523682  0.90076830     0.09800
Br941      Br  0.24345302  0.81661168  0.90992534    -0.05800
Br942      Br  0.25347978  0.83417715  0.72751390    -0.02700
Br943      Br  0.18581392  0.92561924  0.92872512     0.00100
Br944      Br  0.31048859  0.87786706  0.84890819    -0.04200
C945        C  0.20576567  0.75111686  0.79630228    -0.11600
C946        C  0.18163639  0.76912234  0.78491702     0.03800
C947        C  0.15574604  0.77070549  0.80678144    -0.12200
C948        C  0.15341028  0.75455500  0.84013293     0.18700
C949        C  0.17752431  0.73650632  0.85147363    -0.09200
C950        C  0.20331273  0.73483164  0.82953847    -0.02200
H951        H  0.13713012  0.78429018  0.79744241     0.05200
C952        C  0.12506927  0.75485038  0.86163055     0.20700
H953        H  0.22173132  0.72072302  0.83855385     0.10400
C954        C  0.10235061  0.73469027  0.85225421    -0.15500
C955        C  0.07711184  0.73103071  0.87490046     0.03400
C956        C  0.07398363  0.74800005  0.90748474    -0.10900
C957        C  0.09580540  0.76969697  0.91542945    -0.00900
C958        C  0.12132256  0.77301244  0.89294764    -0.06100
H959        H  0.10486743  0.72083730  0.82805582     0.06400
H960        H  0.09400747  0.78271882  0.94042084     0.09800
Br961      Br  0.17571225  0.71330512  0.89633903    -0.05800
Br962      Br  0.18264376  0.79068240  0.73885563    -0.02700
Br963      Br  0.04790078  0.70199140  0.86033655     0.00100
Br964      Br  0.15144890  0.80121227  0.90717676    -0.04200
C965        C  0.25344997  0.30971936  0.70975004    -0.11600
C966        C  0.23347774  0.31284612  0.67983884     0.03800
C967        C  0.23673565  0.33672164  0.65493454    -0.12200
C968        C  0.26050343  0.35715119  0.65812375     0.18700
C969        C  0.28025774  0.35425992  0.68834859    -0.09200
C970        C  0.27628579  0.33101432  0.71411277    -0.02200
H971        H  0.22112053  0.33881787  0.63214580     0.05200
C972        C  0.26404105  0.38087483  0.62930087     0.20700
H973        H  0.29177934  0.32891737  0.73698803     0.10400
C974        C  0.26364424  0.41112098  0.63933714    -0.15500
C975        C  0.26295441  0.43374835  0.61225000     0.03400
C976        C  0.26071838  0.42615790  0.57454536    -0.10900
C977        C  0.26295510  0.39611411  0.56448295    -0.00900
C978        C  0.26544421  0.37364842  0.59135541    -0.06100
H979        H  0.26291612  0.41716869  0.66831946     0.06400
H980        H  0.26207393  0.39003580  0.53548648     0.09800
Br981      Br  0.31437265  0.37981630  0.69421239    -0.05800
Br982      Br  0.20295971  0.28381255  0.66984228    -0.02700
Br983      Br  0.26341273  0.47440984  0.62822864     0.00100
Br984      Br  0.27088545  0.33348077  0.57466358    -0.04200
C985        C  0.30368531  0.26732770  0.71343671    -0.11600
C986        C  0.33096108  0.27666104  0.72912406     0.03800
C987        C  0.35615707  0.28088659  0.70647306    -0.12200
C988        C  0.35464532  0.27568700  0.66817580     0.18700
C989        C  0.32742619  0.26570187  0.65279202    -0.09200
C990        C  0.30219417  0.26210169  0.67528847    -0.02200
H991        H  0.37706860  0.28788625  0.71880210     0.05200
C992        C  0.38215349  0.27741886  0.64519719     0.20700
H993        H  0.28142586  0.25449849  0.66312554     0.10400
C994        C  0.40473836  0.25645001  0.65154433    -0.15500
C995        C  0.42760589  0.25252064  0.62565961     0.03400
C996        C  0.42808582  0.26961656  0.59267527    -0.10900
C997        C  0.40748872  0.29288435  0.58829765    -0.00900
C998        C  0.38471142  0.29705269  0.61453492    -0.06100
H999        H  0.40353533  0.24177415  0.67552348     0.06400
H1000       H  0.40780618  0.30644260  0.56330389     0.09800
Br1001     Br  0.32408287  0.25410890  0.60186541    -0.05800
Br1002     Br  0.33457820  0.28418201  0.78118443    -0.02700
Br1003     Br  0.45690270  0.22236376  0.63551637     0.00100
Br1004     Br  0.35666466  0.32871566  0.60657147    -0.04200
C1005       C  0.19841537  0.24868605  0.80498128    -0.11600
C1006       C  0.19263678  0.26962392  0.83300332     0.03800
C1007       C  0.16843706  0.26544984  0.85707966    -0.12200
C1008       C  0.14975636  0.24032550  0.85446953     0.18700
C1009       C  0.15533531  0.21938735  0.82638971    -0.09200
C1010       C  0.17940486  0.22374501  0.80185517    -0.02200
H1011       H  0.16433198  0.28183138  0.87836944     0.05200
C1012       C  0.12456872  0.23713487  0.88125653     0.20700
H1013       H  0.18346652  0.20745704  0.78046938     0.10400
C1014       C  0.09491521  0.23909536  0.86866063    -0.15500
C1015       C  0.07104620  0.24157596  0.89376107     0.03400
C1016       C  0.07674256  0.24276963  0.93212817    -0.10900
C1017       C  0.10619933  0.23915598  0.94471150    -0.00900
C1018       C  0.12990277  0.23586374  0.91974615    -0.06100
H1019       H  0.09043851  0.24017636  0.83918032     0.06400
H1020       H  0.11089745  0.23973873  0.97416392     0.09800
Br1021     Br  0.13159413  0.18394590  0.82156310    -0.05800
Br1022     Br  0.21801866  0.30357213  0.84104016    -0.02700
Br1023     Br  0.03152115  0.24636037  0.87423164     0.00100
Br1024     Br  0.16929557  0.23004964  0.93949427    -0.04200
C1025       C  0.24660354  0.20296778  0.80101161    -0.11600
C1026       C  0.24258983  0.17531209  0.78341977     0.03800
C1027       C  0.24256822  0.14888827  0.80438364    -0.12200
C1028       C  0.24645297  0.14951877  0.84295925     0.18700
C1029       C  0.25052686  0.17727853  0.86050992    -0.09200
C1030       C  0.25030940  0.20369085  0.83953740    -0.02200
H1031       H  0.23968092  0.12773454  0.79053108     0.05200
C1032       C  0.24836922  0.12100558  0.86401945     0.20700
H1033       H  0.25375196  0.22485084  0.85319570     0.10400
C1034       C  0.27236420  0.10182689  0.85715286    -0.15500
C1035       C  0.27700421  0.07646013  0.87922666     0.03400
C1036       C  0.25780790  0.07025171  0.90949839    -0.10900
C1037       C  0.23226261  0.08800470  0.91419163    -0.00900
C1038       C  0.22727081  0.11301227  0.89141840    -0.06100
H1039       H  0.28802458  0.10703059  0.83507310     0.06400
H1040       H  0.21680955  0.08324027  0.93662434     0.09800
Br1041     Br  0.25854823  0.18028632  0.91258629    -0.05800
Br1042     Br  0.23655174  0.17271916  0.73090808    -0.02700
Br1043     Br  0.30947520  0.05074773  0.86605269     0.00100
Br1044     Br  0.19143049  0.13564087  0.89854475    -0.04200
C1045       C  0.69455921  0.26151573  0.71091845    -0.11600
C1046       C  0.69670883  0.25731881  0.67237829     0.03800
C1047       C  0.67130436  0.25991560  0.65006259    -0.12200
C1048       C  0.64322660  0.26588648  0.66553168     0.18700
C1049       C  0.64081858  0.26938882  0.70419132    -0.09200
C1050       C  0.66643519  0.26746270  0.72654803    -0.02200
H1051       H  0.67320537  0.25589543  0.62057831     0.05200
C1052       C  0.61652873  0.26320139  0.64142033     0.20700
H1053       H  0.66437303  0.27017434  0.75625641     0.10400
C1054       C  0.60600279  0.23456440  0.63398153    -0.15500
C1055       C  0.58350273  0.22975282  0.60798003     0.03400
C1056       C  0.57052493  0.25411100  0.58845587    -0.10900
C1057       C  0.58023125  0.28316307  0.59726368    -0.00900
C1058       C  0.60326935  0.28776879  0.62331285    -0.06100
H1059       H  0.61605469  0.21558089  0.64789526     0.06400
H1060       H  0.57083211  0.30218767  0.58280037     0.09800
Br1061     Br  0.60280487  0.27511045  0.72754797    -0.05800
Br1062     Br  0.73319644  0.24502028  0.64940492    -0.02700
Br1063     Br  0.57226412  0.18881529  0.60109609     0.00100
Br1064     Br  0.61703040  0.32758793  0.63237789    -0.04200
C1065       C  0.73203899  0.43024321  0.58568398    -0.00800
C1066       C  0.71097779  0.40691048  0.58389213     0.03800
C1067       C  0.71059471  0.38470819  0.61159812    -0.12200
C1068       C  0.73117030  0.38546245  0.64100592     0.18700
C1069       C  0.75088913  0.40984774  0.64386738    -0.09200
C1070       C  0.75115682  0.43194988  0.61637894    -0.02200
H1071       H  0.69538938  0.36597535  0.60910357     0.05200
C1072       C  0.73436256  0.35917390  0.66579417     0.20700
H1073       H  0.76772338  0.44960835  0.61775407     0.10400
C1074       C  0.75923630  0.34062549  0.66129007    -0.15500
C1075       C  0.76327211  0.31539689  0.68376824     0.03400
C1076       C  0.74201249  0.30819450  0.71143113    -0.10900
C1077       C  0.71738997  0.32719292  0.71632244    -0.00900
C1078       C  0.71335431  0.35236277  0.69362106    -0.06100
H1079       H  0.77550642  0.34571195  0.63985455     0.06400
H1080       H  0.70113268  0.32233350  0.73782246     0.09800
Br1081     Br  0.77916920  0.41296003  0.68359344    -0.05800
Br1082     Br  0.68455849  0.40302249  0.54242918    -0.02700
Br1083     Br  0.79749320  0.29102374  0.67394893     0.00100
Br1084     Br  0.67923151  0.37711578  0.70191017    -0.04200
C1085       C  0.75196259  0.20160564  0.80315306    -0.11600
C1086       C  0.73153361  0.19615600  0.83218493     0.03800
C1087       C  0.73475377  0.17089297  0.85473838    -0.12200
C1088       C  0.75878371  0.15126421  0.84990670     0.18700
C1089       C  0.77910041  0.15651754  0.82073764    -0.09200
C1090       C  0.77529370  0.18127344  0.79732638    -0.02200
H1091       H  0.71887093  0.16697479  0.87696716     0.05200
C1092       C  0.76219610  0.12593080  0.87620436     0.20700
H1093       H  0.79099090  0.18499924  0.77490409     0.10400
C1094       C  0.75890832  0.09651599  0.86361970    -0.15500
C1095       C  0.75727540  0.07254367  0.88879198     0.03400
C1096       C  0.75894405  0.07795717  0.92712732    -0.10900
C1097       C  0.76396009  0.10712173  0.93944984    -0.00900
C1098       C  0.76565032  0.13098949  0.91445301    -0.06100
H1099       H  0.75592221  0.09237654  0.83431158     0.06400
H1100       H  0.76495201  0.11155870  0.96891489     0.09800
Br1101     Br  0.81331444  0.13167666  0.81321632    -0.05800
Br1102     Br  0.70015155  0.22354066  0.84397920    -0.02700
Br1103     Br  0.74905029  0.03350645  0.86990613     0.00100
Br1104     Br  0.77120683  0.17025869  0.93421304    -0.04200
C1105       C  0.92922065  0.24344149  0.91715968    -0.11600
C1106       C  0.92680300  0.26091289  0.88449457     0.03800
C1107       C  0.90186160  0.25804660  0.86157066    -0.12200
C1108       C  0.87912145  0.23753822  0.86996944     0.18700
C1109       C  0.88312481  0.21761379  0.90007600    -0.09200
C1110       C  0.90790996  0.22088398  0.92369939    -0.02200
H1111       H  0.89963927  0.27278939  0.83777929     0.05200
C1112       C  0.85123228  0.23858827  0.84758430     0.20700
H1113       H  0.90950476  0.20702005  0.94834968     0.10400
C1114       C  0.85279397  0.23332457  0.80932140    -0.15500
C1115       C  0.82779326  0.23744293  0.78652184     0.03400
C1116       C  0.80041728  0.24660233  0.80193694    -0.10900
C1117       C  0.79874070  0.25175873  0.84016825    -0.00900
C1118       C  0.82392771  0.24834829  0.86286703    -0.06100
H1119       H  0.87373510  0.22647275  0.79704587     0.06400
H1120       H  0.77788958  0.25910453  0.85223280     0.09800
Br1121     Br  0.85522159  0.18595815  0.90999391    -0.05800
Br1122     Br  0.95650289  0.28991151  0.87037068    -0.02700
Br1123     Br  0.83201249  0.22990808  0.73457524     0.00100
Br1124     Br  0.82043976  0.25983033  0.91379960    -0.04200
C1125       C  0.74238323  0.69940249  0.70329623    -0.11600
C1126       C  0.73260581  0.67188947  0.71809897     0.03800
C1127       C  0.72942399  0.64718390  0.69494488    -0.12200
C1128       C  0.73622514  0.64928509  0.65700057     0.18700
C1129       C  0.74579692  0.67697052  0.64219259    -0.09200
C1130       C  0.74869381  0.70172271  0.66532782    -0.02200
H1131       H  0.72197902  0.62609846  0.70666328     0.05200
C1132       C  0.73489397  0.62207936  0.63382860     0.20700
H1133       H  0.75608713  0.72286836  0.65371576     0.10400
C1134       C  0.71487819  0.62047785  0.60386262    -0.15500
C1135       C  0.71582468  0.59652789  0.57902355     0.03400
C1136       C  0.73658099  0.57336364  0.58457263    -0.10900
C1137       C  0.75503402  0.57408773  0.61601264    -0.00900
C1138       C  0.75463942  0.59821536  0.64022055    -0.06100
H1139       H  0.69950930  0.63864604  0.59875009     0.06400
H1140       H  0.77132557  0.55662643  0.62038659     0.09800
Br1141     Br  0.75650434  0.68190357  0.59099413    -0.05800
Br1142     Br  0.72304298  0.66714764  0.76963066    -0.02700
Br1143     Br  0.69101311  0.59834009  0.53579243     0.00100
Br1144     Br  0.78399000  0.59897354  0.67900027    -0.04200
C1145       C  0.57113310  0.73556739  0.58289899    -0.11600
C1146       C  0.59446641  0.71489435  0.57806862     0.03800
C1147       C  0.61751595  0.71304127  0.60443161    -0.12200
C1148       C  0.61772305  0.73170371  0.63549966     0.18700
C1149       C  0.59346527  0.75085630  0.64151098    -0.09200
C1150       C  0.57031299  0.75233305  0.61565083    -0.02200
H1151       H  0.63624897  0.69835829  0.59951329     0.05200
C1152       C  0.64489918  0.73421255  0.65862609     0.20700
H1153       H  0.55253555  0.76828363  0.61987500     0.10400
C1154       C  0.66613226  0.75616290  0.64941863    -0.15500
C1155       C  0.69113751  0.76096944  0.67184044     0.03400
C1156       C  0.69495537  0.74406593  0.70452075    -0.10900
C1157       C  0.67381453  0.72189031  0.71358605    -0.00900
C1158       C  0.64907380  0.71666907  0.69069607    -0.06100
H1159       H  0.66316498  0.76967056  0.62465150     0.06400
H1160       H  0.67668175  0.70846781  0.73839294     0.09800
Br1161     Br  0.59261321  0.77763198  0.68273920    -0.05800
Br1162     Br  0.59800704  0.69168830  0.53393323    -0.02700
Br1163     Br  0.72016295  0.78994848  0.65595299     0.00100
Br1164     Br  0.62167651  0.68537022  0.70390413    -0.04200
C1165       C  0.80252548  0.75947885  0.79195955    -0.11600
C1166       C  0.81049356  0.73797465  0.81885612     0.03800
C1167       C  0.83596648  0.74223233  0.84050903    -0.12200
C1168       C  0.85345490  0.76815872  0.83687935     0.18700
C1169       C  0.84585633  0.78951174  0.80973622    -0.09200
C1170       C  0.82078560  0.78486810  0.78719440    -0.02200
H1171       H  0.84157282  0.72569188  0.86141410     0.05200
C1172       C  0.87822267  0.77270011  0.86352645     0.20700
H1173       H  0.81512998  0.80147148  0.76644354     0.10400
C1174       C  0.90813638  0.77152344  0.85165983    -0.15500
C1175       C  0.93151339  0.76950075  0.87754583     0.03400
C1176       C  0.92481776  0.76731603  0.91564874    -0.10900
C1177       C  0.89516639  0.77120347  0.92733137    -0.00900
C1178       C  0.87207031  0.77446451  0.90169017    -0.06100
H1179       H  0.91320253  0.77074043  0.82232566     0.06400
H1180       H  0.88975857  0.77023062  0.95660770     0.09800
Br1181     Br  0.86777740  0.82609401  0.80425200    -0.05800
Br1182     Br  0.78615377  0.70358675  0.82948578    -0.02700
Br1183     Br  0.97181202  0.76760021  0.85965567     0.00100
Br1184     Br  0.83217638  0.77998409  0.92000494    -0.04200
C1185       C  0.75408240  0.80439480  0.79504361    -0.11600
C1186       C  0.75915637  0.83307419  0.78004760     0.03800
C1187       C  0.76196311  0.85767679  0.80350874    -0.12200
C1188       C  0.75930925  0.85450090  0.84217236     0.18700
C1189       C  0.75385845  0.82571989  0.85715266    -0.09200
C1190       C  0.75180241  0.80100381  0.83365436    -0.02200
H1191       H  0.76566690  0.87958549  0.79143687     0.05200
C1192       C  0.75842421  0.88188306  0.86543624     0.20700
H1193       H  0.74766628  0.77908133  0.84548506     0.10400
C1194       C  0.73645128  0.90328208  0.85779270    -0.15500
C1195       C  0.73265162  0.92809611  0.88051039     0.03400
C1196       C  0.75034818  0.93153115  0.91261690    -0.10900
C1197       C  0.77413407  0.91162489  0.91846544    -0.00900
C1198       C  0.77860568  0.88725950  0.89475910    -0.06100
H1199       H  0.72165550  0.90035424  0.83433881     0.06400
H1200       H  0.78853443  0.91427463  0.94233543     0.09800
Br1201     Br  0.74628099  0.81908191  0.90894753    -0.05800
Br1202     Br  0.76281646  0.83967335  0.72768168    -0.02700
Br1203     Br  0.70320324  0.95693019  0.86583362     0.00100
Br1204     Br  0.81295906  0.86260059  0.90278881    -0.04200
loop_ 
_geom_bond_atom_site_label_1 
_geom_bond_atom_site_label_2 
_geom_bond_distance 
_geom_bond_site_symmetry_2 
_ccdc_geom_bond_type 
C1            C2   1.417       .  A
C1            C6   1.409       .  A
C1         C1185   1.491       .  S
C2            C3   1.407       .  A
C2         C1165   1.488       .  S
C3            C4   1.402       .  A
C3            H8   1.084       .  S
C4            C5   1.410       .  A
C4         C1125   1.483       .  S
C5            C6   1.408       .  A
C5         C1156   1.486       .  S
C6            H7   1.084       .  S
C9           C10   1.414       .  A
C9           C14   1.406       .  A
C9         C1085   1.486       .  S
C10          C11   1.406       .  A
C10        C1116   1.488       .  S
C11          C12   1.409       .  A
C11          H16   1.084       .  S
C12          C13   1.418       .  A
C12        C1076   1.491       .  S
C13          C14   1.404       .  A
C13        C1045   1.489       .  S
C14          H15   1.084       .  S
C17          C18   1.415       .  A
C17          C22   1.409       .  A
C17        C1005   1.493       .  S
C18          C19   1.404       .  A
C18        C1025   1.482       .  S
C19          C20   1.402       .  A
C19          H24   1.085       .  S
C20          C21   1.414       .  A
C20         C985   1.484       .  S
C21          C22   1.408       .  A
C21         C965   1.489       .  S
C22          H23   1.084       .  S
C25          C26   1.417       .  A
C25          C30   1.407       .  A
C25         C945   1.489       .  S
C26          C27   1.412       .  A
C26         C925   1.493       .  S
C27          C28   1.408       .  A
C27          H32   1.083       .  S
C28          C29   1.413       .  A
C28         C885   1.489       .  S
C29          C30   1.406       .  A
C29         C905   1.487       .  S
C30          H31   1.082       .  S
C33          C34   1.414       .  A
C33          C38   1.411       .  A
C33         C865   1.486       .  S
C34          C35   1.401       .  A
C34         C845   1.487       .  S
C35          C36   1.405       .  A
C35          H40   1.085       .  S
C36          C37   1.417       .  A
C36         C816   1.481       .  S
C37          C38   1.410       .  A
C37         C825   1.498       .  S
C38          H39   1.084       .  S
C41          C42   1.415       .  A
C41          C46   1.402       .  A
C41         C765   1.480       .  S
C42          C43   1.407       .  A
C42         C796   1.489       .  S
C43          C44   1.406       .  A
C43          H48   1.085       .  S
C44          C45   1.414       .  A
C44         C756   1.483       .  S
C45          C46   1.403       .  A
C45         C725   1.487       .  S
C46          H47   1.085       .  S
C49          C50   1.415       .  A
C49          C54   1.404       .  A
C49         C716   1.486       .  S
C50          C51   1.411       .  A
C50         C685   1.491       .  S
C51          C52   1.411       .  A
C51          H56   1.084       .  S
C52          C53   1.416       .  A
C52         C656   1.497       .  S
C53          C54   1.405       .  A
C53         C665   1.483       .  S
C54          H55   1.085       .  S
Fe57         O73   2.089       .  S
Fe57         O63   2.037       .  S
Fe57         O70   2.052       .  S
Fe57         O62   2.060       .  S
Fe57         O68   1.955       .  S
Fe58         O61   2.046       .  S
Fe58         O65   2.043       .  S
Fe58         O69   2.062       .  S
Fe58         O74   2.032       .  S
Fe58         O68   1.950       .  S
Fe59         O77   2.086       .  S
Fe59         O64   2.121       .  S
Fe59         O71   2.123       .  S
Fe59         O60   2.078       .  S
Fe59         O68   1.967       .  S
O60          C67   1.270       .  A
O61          C75   1.265       .  A
O62          C67   1.267       .  A
O63          C66   1.267       .  A
O64          C76   1.281       .  A
O65          C78   1.264       .  A
C66         C836   1.496       .  S
C66          O71   1.283       .  A
C67         C896   1.471       .  S
O69          C72   1.266       .  A
O70          C72   1.266       .  A
C72         C605   1.475       .  S
O73          C78   1.272       .  A
O74          C76   1.266       .  A
C75         C736   1.480       .  S
C75          O77   1.271       .  A
C76        C1145   1.482       .  S
C78         C625   1.467       .  S
Fe79         O95   2.075       .  S
Fe79         O85   2.037       .  S
Fe79         O92   2.052   1_554  S
Fe79         O84   2.056   1_554  S
Fe79         O90   1.950       .  S
Fe80         O83   2.055   1_556  S
Fe80         O87   2.061   1_556  S
Fe80         O91   2.073       .  S
Fe80         O96   2.044       .  S
Fe80         O90   1.941   1_566  S
Fe81         O99   2.087   1_545  S
Fe81         O86   2.121   1_544  S
Fe81         O93   2.124       .  S
Fe81         O82   2.082   1_554  S
Fe81         O90   1.958       .  S
O82          C89   1.272       .  A
O83          C97   1.265       .  A
O84          C89   1.267       .  A
O85          C88   1.266       .  A
O86          C98   1.280       .  A
O87         C100   1.267       .  A
C88         C705   1.484       .  S
C88          O93   1.281       .  A
C89        C1096   1.471       .  S
O91          C94   1.271   1_565  A
O92          C94   1.264       .  A
C94         C596   1.488       .  S
O95         C100   1.270   1_545  A
O96          C98   1.268       .  A
C97         C776   1.490       .  S
C97          O99   1.274       .  A
C98        C1196   1.489       .  S
C100        C576   1.476       .  S
Fe101       O117   2.069       .  S
Fe101       O107   2.050       .  S
Fe101       O114   2.054   1_556  S
Fe101       O106   2.051   1_556  S
Fe101       O112   1.946   1_545  S
Fe102       O105   2.048       .  S
Fe102       O109   2.053       .  S
Fe102       O113   2.066   1_556  S
Fe102       O118   2.040   1_556  S
Fe102       O112   1.957       .  S
Fe103       O121   2.095       .  S
Fe103       O108   2.108   1_556  S
Fe103       O115   2.098   1_565  S
Fe103       O104   2.098   1_566  S
Fe103       O112   1.966       .  S
O104        C111   1.277       .  A
O105        C119   1.265       .  A
O106        C111   1.269       .  A
O107        C110   1.267       .  A
O108        C120   1.278       .  A
O109        C122   1.266       .  A
C110       C1036   1.486       .  S
C110        O115   1.275       .  A
C111        C545   1.487       .  S
O113        C116   1.265       .  A
O114        C116   1.265   1_545  A
C116        C505   1.468       .  S
O117        C122   1.271   1_545  A
O118        C120   1.267       .  A
C119        C936   1.478       .  S
C119        O121   1.274       .  A
C120        C876   1.477       .  S
C122        C525   1.484       .  S
Fe123       O139   2.075       .  S
Fe123       O129   2.042       .  S
Fe123       O136   2.064       .  S
Fe123       O128   2.057       .  S
Fe123       O134   1.961       .  S
Fe124       O127   2.058       .  S
Fe124       O131   2.047       .  S
Fe124       O135   2.074       .  S
Fe124       O140   2.046       .  S
Fe124       O134   1.953       .  S
Fe125       O143   2.103       .  S
Fe125       O130   2.102       .  S
Fe125       O137   2.106       .  S
Fe125       O126   2.100       .  S
Fe125       O134   1.969       .  S
O126        C133   1.275       .  A
O127        C141   1.265       .  A
O128        C133   1.266       .  A
O129        C132   1.267       .  A
O130        C142   1.278       .  A
O131        C144   1.266       .  A
C132        C996   1.476       .  S
C132        O137   1.277       .  A
C133        C496   1.481       .  S
O135        C138   1.268       .  A
O136        C138   1.267       .  A
C138        C465   1.472       .  S
O139        C144   1.269       .  A
O140        C142   1.269       .  A
C141       C1056   1.497       .  S
C141        O143   1.275       .  A
C142        C676   1.482       .  S
C144        C445   1.473       .  S
C145        C476   1.571       .  S
C145        C516   1.568   1_545  S
C145        C565   1.571       .  S
C145        C636   1.562   1_545  S
C146        C456   1.565   1_565  S
C146        C536   1.583       .  S
C146        C585   1.573   1_565  S
C146        C616   1.561       .  S
Fe147       O163   2.042       .  S
Fe147       O153   2.048       .  S
Fe147       O160   2.062       .  S
Fe147       O152   2.029       .  S
Fe147       O158   1.967       .  S
Fe148       O151   2.033       .  S
Fe148       O155   2.070       .  S
Fe148       O159   2.044       .  S
Fe148       O164   2.050       .  S
Fe148       O158   1.970       .  S
Fe149       O167   2.113       .  S
Fe149       O154   2.085       .  S
Fe149       O161   2.085       .  S
Fe149       O150   2.107       .  S
Fe149       O158   1.988       .  S
O150        C157   1.275       .  A
O151        C165   1.264       .  A
O152        C157   1.262       .  A
O153        C156   1.267       .  A
O154        C166   1.272       .  A
O155        C168   1.268       .  A
C156        C745   1.470       .  S
C156        O161   1.274       .  A
C157       C1136   1.479       .  S
O159        C162   1.265       .  A
O160        C162   1.267       .  A
C162        C405   1.480       .  S
O163        C168   1.261       .  A
O164        C166   1.266       .  A
C165        C645   1.479       .  S
C165        O167   1.277       .  A
C166       C1065   1.471       .  S
C168        C425   1.483       .  S
Fe169       O185   2.065   1_556  S
Fe169       O175   2.038   1_556  S
Fe169       O182   2.058       .  S
Fe169       O174   2.053       .  S
Fe169       O180   1.969       .  S
Fe170       O173   2.060   1_556  S
Fe170       O177   2.051   1_556  S
Fe170       O181   2.063       .  S
Fe170       O186   2.054       .  S
Fe170       O180   1.966   1_455  S
Fe171       O189   2.085   1_556  S
Fe171       O176   2.105       .  S
Fe171       O183   2.109   1_456  S
Fe171       O172   2.089   1_455  S
Fe171       O180   1.980   1_455  S
O172        C179   1.272       .  A
O173        C187   1.269       .  A
O174        C179   1.267       .  A
O175        C178   1.264       .  A
O176        C188   1.276       .  A
O177        C190   1.264   1_455  A
C178        C785   1.473       .  S
C178        O183   1.277       .  A
C179       C1176   1.477       .  S
O181        C184   1.269   1_455  A
O182        C184   1.267       .  A
C184        C385   1.463       .  S
O185        C190   1.266       .  A
O186        C188   1.267       .  A
C187        C856   1.480       .  S
C187        O189   1.273       .  A
C188        C956   1.487       .  S
C190        C365   1.471       .  S
Fe191       O207   2.075       .  S
Fe191       O197   2.024       .  S
Fe191       O204   2.034   1_556  S
Fe191       O196   2.059   1_556  S
Fe191       O202   1.944   1_556  S
Fe192       O195   2.072   1_554  S
Fe192       O199   2.050   1_554  S
Fe192       O203   2.086       .  S
Fe192       O208   2.047       .  S
Fe192       O202   1.944   1_455  S
Fe193       O211   2.084   1_654  S
Fe193       O198   2.119   1_655  S
Fe193       O205   2.126   1_554  S
Fe193       O194   2.085       .  S
Fe193       O202   1.952       .  S
O194        C201   1.273       .  A
O195        C209   1.270       .  A
O196        C201   1.270       .  A
O197        C200   1.263       .  A
O198        C210   1.282       .  A
O199        C212   1.266       .  A
C200       C1105   1.483       .  S
C200        O205   1.280       .  A
C201        C696   1.485       .  S
O203        C206   1.271   1_455  A
O204        C206   1.261       .  A
C206        C316   1.460       .  S
O207        C212   1.272   1_655  A
O208        C210   1.269       .  A
C209       C1016   1.481       .  S
C209        O211   1.273       .  A
C210        C345   1.490       .  S
C212        C336   1.484       .  S
Fe213       O229   2.077       .  S
Fe213       O219   2.037       .  S
Fe213       O226   2.048       .  S
Fe213       O218   2.069       .  S
Fe213       O224   1.939       .  S
Fe214       O217   2.074       .  S
Fe214       O221   2.047       .  S
Fe214       O225   2.074       .  S
Fe214       O230   2.032       .  S
Fe214       O224   1.937       .  S
Fe215       O233   2.073       .  S
Fe215       O220   2.133       .  S
Fe215       O227   2.125       .  S
Fe215       O216   2.079       .  S
Fe215       O224   1.953       .  S
O216        C223   1.273       .  A
O217        C231   1.271       .  A
O218        C223   1.270       .  A
O219        C222   1.268       .  A
O220        C232   1.281       .  A
O221        C234   1.265       .  A
C222        C916   1.491       .  S
C222        O227   1.281       .  A
C223        C805   1.476       .  S
O225        C228   1.271       .  A
O226        C228   1.266       .  A
C228        C265   1.474       .  S
O229        C234   1.270       .  A
O230        C232   1.262       .  A
C231        C976   1.476       .  S
C231        O233   1.271       .  A
C232        C296   1.487       .  S
C234        C245   1.459       .  S
C235        C276   1.561   1_655  S
C235        C305   1.564       .  S
C235        C376   1.578       .  S
C235        C436   1.581       .  S
C236        C256   1.565   1_655  S
C236        C325   1.572       .  S
C236        C396   1.568       .  S
C236        C416   1.570       .  S
C237        C238   1.411       .  A
C237        C242   1.409       .  A
C237        C556   1.488       .  S
C238        C239   1.404       .  A
C238        C356   1.486       .  S
C239        C240   1.409       .  A
C239        H244   1.084       .  S
C240        C241   1.422       .  A
C240        C285   1.497       .  S
C241        C242   1.411       .  A
C241        C485   1.494       .  S
C242        H243   1.084       .  S
C245        C246   1.404       .  A
C245        C250   1.400       .  A
C246        C247   1.394       .  A
C246       Br262   1.911       .  S
C247        C248   1.400       .  A
C247        H251   1.084       .  S
C248        C249   1.410       .  A
C248        C252   1.471       .  S
C249        C250   1.396       .  A
C249       Br261   1.921       .  S
C250        H253   1.084       .  S
C252        C254   1.395       .  A
C252        C258   1.400       .  A
C254        C255   1.396       .  A
C254        H259   1.084       .  S
C255        C256   1.433       .  A
C255       Br263   1.925       .  S
C256        C257   1.417       .  A
C257        C258   1.392       .  A
C257        H260   1.077       .  S
C258       Br264   1.920       .  S
C265        C266   1.415       .  A
C265        C270   1.406       .  A
C266        C267   1.397       .  A
C266       Br282   1.922       .  S
C267        C268   1.398       .  A
C267        H271   1.084       .  S
C268        C269   1.404       .  A
C268        C272   1.466       .  S
C269        C270   1.394       .  A
C269       Br281   1.920       .  S
C270        H273   1.084       .  S
C272        C274   1.392       .  A
C272        C278   1.394       .  A
C274        C275   1.400       .  A
C274        H279   1.085       .  S
C275        C276   1.442       .  A
C275       Br283   1.931       .  S
C276        C277   1.423       .  A
C277        C278   1.390       .  A
C277        H280   1.083       .  S
C278       Br284   1.918       .  S
C285        C286   1.415       .  A
C285        C290   1.406       .  A
C286        C287   1.403       .  A
C286       Br302   1.922       .  S
C287        C288   1.403       .  A
C287        H291   1.083       .  S
C288        C289   1.411       .  A
C288        C292   1.490       .  S
C289        C290   1.401       .  A
C289       Br301   1.919       .  S
C290        H293   1.083       .  S
C292        C294   1.398       .  A
C292        C298   1.414       .  A
C294        C295   1.394       .  A
C294        H299   1.084       .  S
C295        C296   1.417       .  A
C295       Br303   1.925       .  S
C296        C297   1.406       .  A
C297        C298   1.411       .  A
C297        H300   1.083       .  S
C298       Br304   1.917       .  S
C305        C306   1.432   1_655  A
C305        C310   1.422       .  A
C306        C307   1.394       .  A
C306       Br322   1.922       .  S
C307        C308   1.395   1_455  A
C307        H311   1.084       .  S
C308        C309   1.402       .  A
C308        C312   1.477       .  S
C309        C310   1.394       .  A
C309       Br321   1.922       .  S
C310        H313   1.077       .  S
C312        C314   1.403       .  A
C312        C318   1.412       .  A
C314        C315   1.393       .  A
C314        H319   1.083       .  S
C315        C316   1.406       .  A
C315       Br323   1.919       .  S
C316        C317   1.399       .  A
C317        C318   1.396       .  A
C317        H320   1.084       .  S
C318       Br324   1.922       .  S
C325        C326   1.436       .  A
C325        C330   1.421       .  A
C326        C327   1.401       .  A
C326       Br342   1.924       .  S
C327        C328   1.393       .  A
C327        H331   1.084       .  S
C328        C329   1.395       .  A
C328        C332   1.467       .  S
C329        C330   1.388       .  A
C329       Br341   1.922       .  S
C330        H333   1.076       .  S
C332        C334   1.398   1_655  A
C332        C338   1.402       .  A
C334        C335   1.397       .  A
C334        H339   1.084       .  S
C335        C336   1.418       .  A
C335       Br343   1.922       .  S
C336        C337   1.410   1_455  A
C337        C338   1.395       .  A
C337        H340   1.083       .  S
C338       Br344   1.919       .  S
C345        C346   1.417       .  A
C345        C350   1.408       .  A
C346        C347   1.398       .  A
C346       Br362   1.916       .  S
C347        C348   1.398       .  A
C347        H351   1.084       .  S
C348        C349   1.408       .  A
C348        C352   1.483       .  S
C349        C350   1.405       .  A
C349       Br361   1.917       .  S
C350        H353   1.083       .  S
C352        C354   1.404       .  A
C352        C358   1.409       .  A
C354        C355   1.404       .  A
C354        H359   1.083       .  S
C355        C356   1.410       .  A
C355       Br363   1.916       .  S
C356        C357   1.402       .  A
C357        C358   1.399       .  A
C357        H360   1.083       .  S
C358       Br364   1.919       .  S
C365        C366   1.409   1_655  A
C365        C370   1.405       .  A
C366        C367   1.396       .  A
C366       Br382   1.920       .  S
C367        C368   1.402   1_455  A
C367        H371   1.084       .  S
C368        C369   1.406       .  A
C368        C372   1.473       .  S
C369        C370   1.399       .  A
C369       Br381   1.918       .  S
C370        H373   1.084       .  S
C372        C374   1.393   1_655  A
C372        C378   1.396       .  A
C374        C375   1.401       .  A
C374        H379   1.085       .  S
C375        C376   1.442   1_455  A
C375       Br383   1.929       .  S
C376        C377   1.425       .  A
C377        C378   1.392       .  A
C377        H380   1.083       .  S
C378       Br384   1.919       .  S
C385        C386   1.407       .  A
C385        C390   1.398       .  A
C386        C387   1.398       .  A
C386       Br402   1.913       .  S
C387        C388   1.403       .  A
C387        H391   1.083       .  S
C388        C389   1.412       .  A
C388        C392   1.476       .  S
C389        C390   1.393       .  A
C389       Br401   1.921       .  S
C390        H393   1.084       .  S
C392        C394   1.396   1_655  A
C392        C398   1.402       .  A
C394        C395   1.393       .  A
C394        H399   1.084       .  S
C395        C396   1.432   1_455  A
C395       Br403   1.924       .  S
C396        C397   1.419       .  A
C397        C398   1.396       .  A
C397        H400   1.077       .  S
C398       Br404   1.920       .  S
C405        C406   1.417       .  A
C405        C410   1.409       .  A
C406        C407   1.395       .  A
C406       Br422   1.921       .  S
C407        C408   1.398       .  A
C407        H411   1.084       .  S
C408        C409   1.402       .  A
C408        C412   1.465       .  S
C409        C410   1.393       .  A
C409       Br421   1.919       .  S
C410        H413   1.083       .  S
C412        C414   1.393       .  A
C412        C418   1.396       .  A
C414        C415   1.399       .  A
C414        H419   1.084       .  S
C415        C416   1.435       .  A
C415       Br423   1.925       .  S
C416        C417   1.422       .  A
C417        C418   1.387       .  A
C417        H420   1.076       .  S
C418       Br424   1.923       .  S
C425        C426   1.417       .  A
C425        C430   1.405       .  A
C426        C427   1.396       .  A
C426       Br442   1.923       .  S
C427        C428   1.402       .  A
C427        H431   1.084       .  S
C428        C429   1.412       .  A
C428        C432   1.484       .  S
C429        C430   1.398       .  A
C429       Br441   1.921       .  S
C430        H433   1.083       .  S
C432        C434   1.395       .  A
C432        C438   1.406       .  A
C434        C435   1.395       .  A
C434        H439   1.084       .  S
C435        C436   1.433       .  A
C435       Br443   1.918       .  S
C436        C437   1.421       .  A
C437        C438   1.397       .  A
C437        H440   1.077       .  S
C438       Br444   1.922       .  S
C445        C446   1.410       .  A
C445        C450   1.404       .  A
C446        C447   1.397       .  A
C446       Br462   1.920       .  S
C447        C448   1.402       .  A
C447        H451   1.084       .  S
C448        C449   1.404       .  A
C448        C452   1.470       .  S
C449        C450   1.394       .  A
C449       Br461   1.919       .  S
C450        H453   1.082       .  S
C452        C454   1.393       .  A
C452        C458   1.398       .  A
C454        C455   1.394       .  A
C454        H459   1.084       .  S
C455        C456   1.433       .  A
C455       Br463   1.918       .  S
C456        C457   1.421       .  A
C457        C458   1.396       .  A
C457        H460   1.075       .  S
C458       Br464   1.918       .  S
C465        C466   1.408       .  A
C465        C470   1.402       .  A
C466        C467   1.401       .  A
C466       Br482   1.918       .  S
C467        C468   1.404       .  A
C467        H471   1.084       .  S
C468        C469   1.410       .  A
C468        C472   1.482       .  S
C469        C470   1.399       .  A
C469       Br481   1.920       .  S
C470        H473   1.084       .  S
C472        C474   1.395       .  A
C472        C478   1.400       .  A
C474        C475   1.399       .  A
C474        H479   1.084       .  S
C475        C476   1.434       .  A
C475       Br483   1.923       .  S
C476        C477   1.422       .  A
C477        C478   1.400       .  A
C477        H480   1.077       .  S
C478       Br484   1.919       .  S
C485        C486   1.414       .  A
C485        C490   1.404       .  A
C486        C487   1.407       .  A
C486       Br502   1.917       .  S
C487        C488   1.404       .  A
C487        H491   1.083       .  S
C488        C489   1.410       .  A
C488        C492   1.488       .  S
C489        C490   1.401       .  A
C489       Br501   1.919       .  S
C490        H493   1.083       .  S
C492        C494   1.403       .  A
C492        C498   1.410       .  A
C494        C495   1.402       .  A
C494        H499   1.083       .  S
C495        C496   1.410       .  A
C495       Br503   1.919       .  S
C496        C497   1.405       .  A
C497        C498   1.406       .  A
C497        H500   1.083       .  S
C498       Br504   1.917       .  S
C505        C506   1.408   1_565  A
C505        C510   1.403       .  A
C506        C507   1.394       .  A
C506       Br522   1.917       .  S
C507        C508   1.400   1_545  A
C507        H511   1.084       .  S
C508        C509   1.410       .  A
C508        C512   1.474       .  S
C509        C510   1.399       .  A
C509       Br521   1.920       .  S
C510        H513   1.084       .  S
C512        C514   1.393       .  A
C512        C518   1.399   1_565  A
C514        C515   1.400       .  A
C514        H519   1.084       .  S
C515        C516   1.443       .  A
C515       Br523   1.932       .  S
C516        C517   1.417   1_565  A
C517        C518   1.393       .  A
C517        H520   1.080       .  S
C518       Br524   1.920       .  S
C525        C526   1.418       .  A
C525        C530   1.408   1_565  A
C526        C527   1.400       .  A
C526       Br542   1.921       .  S
C527        C528   1.399       .  A
C527        H531   1.084       .  S
C528        C529   1.402   1_565  A
C528        C532   1.468       .  S
C529        C530   1.392       .  A
C529       Br541   1.921       .  S
C530        H533   1.083       .  S
C532        C534   1.394       .  A
C532        C538   1.395       .  A
C534        C535   1.401       .  A
C534        H539   1.084       .  S
C535        C536   1.435       .  A
C535       Br543   1.920       .  S
C536        C537   1.424       .  A
C537        C538   1.389       .  A
C537        H540   1.078       .  S
C538       Br544   1.921       .  S
C545        C546   1.412       .  A
C545        C550   1.408       .  A
C546        C547   1.409       .  A
C546       Br562   1.917       .  S
C547        C548   1.406       .  A
C547        H551   1.083       .  S
C548        C549   1.404       .  A
C548        C552   1.482       .  S
C549        C550   1.394       .  A
C549       Br561   1.920       .  S
C550        H553   1.083       .  S
C552        C554   1.402       .  A
C552        C558   1.409       .  A
C554        C555   1.402       .  A
C554        H559   1.083       .  S
C555        C556   1.410       .  A
C555       Br563   1.917       .  S
C556        C557   1.404       .  A
C557        C558   1.402       .  A
C557        H560   1.083       .  S
C558       Br564   1.919       .  S
C565        C566   1.437       .  A
C565        C570   1.420   1_545  A
C566        C567   1.404       .  A
C566       Br582   1.926       .  S
C567        C568   1.398       .  A
C567        H571   1.083       .  S
C568        C569   1.396   1_545  A
C568        C572   1.478       .  S
C569        C570   1.392       .  A
C569       Br581   1.921       .  S
C570        H573   1.072       .  S
C572        C574   1.402   1_545  A
C572        C578   1.407       .  A
C574        C575   1.399       .  A
C574        H579   1.084       .  S
C575        C576   1.413       .  A
C575       Br583   1.918       .  S
C576        C577   1.404   1_565  A
C577        C578   1.398       .  A
C577        H580   1.084       .  S
C578       Br584   1.919       .  S
C585        C586   1.438   1_545  A
C585        C590   1.423       .  A
C586        C587   1.402       .  A
C586       Br602   1.929       .  S
C587        C588   1.398   1_565  A
C587        H591   1.084       .  S
C588        C589   1.398       .  A
C588        C592   1.477       .  S
C589        C590   1.391       .  A
C589       Br601   1.920       .  S
C590        H593   1.083       .  S
C592        C594   1.402       .  A
C592        C598   1.405   1_545  A
C594        C595   1.402       .  A
C594        H599   1.083       .  S
C595        C596   1.421       .  A
C595       Br603   1.924       .  S
C596        C597   1.408   1_545  A
C597        C598   1.392       .  A
C597        H600   1.083       .  S
C598       Br604   1.922       .  S
C605        C606   1.416       .  A
C605        C610   1.405       .  A
C606        C607   1.395       .  A
C606       Br622   1.921       .  S
C607        C608   1.398       .  A
C607        H611   1.084       .  S
C608        C609   1.406       .  A
C608        C612   1.468       .  S
C609        C610   1.395       .  A
C609       Br621   1.920       .  S
C610        H613   1.083       .  S
C612        C614   1.391       .  A
C612        C618   1.395       .  A
C614        C615   1.395       .  A
C614        H619   1.085       .  S
C615        C616   1.441       .  A
C615       Br623   1.929   1_565  S
C616        C617   1.424       .  A
C617        C618   1.395       .  A
C617        H620   1.082       .  S
C618       Br624   1.918       .  S
C625        C626   1.407       .  A
C625        C630   1.402       .  A
C626        C627   1.395       .  A
C626       Br642   1.919       .  S
C627        C628   1.403       .  A
C627        H631   1.084       .  S
C628        C629   1.412       .  A
C628        C632   1.479       .  S
C629        C630   1.399       .  A
C629       Br641   1.921       .  S
C630        H633   1.084       .  S
C632        C634   1.395       .  A
C632        C638   1.403       .  A
C634        C635   1.396       .  A
C634        H639   1.084       .  S
C635        C636   1.433       .  A
C635       Br643   1.923       .  S
C636        C637   1.418       .  A
C637        C638   1.396       .  A
C637        H640   1.078       .  S
C638       Br644   1.920       .  S
C645        C646   1.412       .  A
C645        C650   1.405       .  A
C646        C647   1.399       .  A
C646       Br662   1.921       .  S
C647        C648   1.401       .  A
C647        H651   1.084       .  S
C648        C649   1.411       .  A
C648        C652   1.485       .  S
C649        C650   1.407       .  A
C649       Br661   1.918       .  S
C650        H653   1.083       .  S
C652        C654   1.403       .  A
C652        C658   1.407       .  A
C654        C655   1.401       .  A
C654        H659   1.084       .  S
C655        C656   1.412       .  A
C655       Br663   1.916       .  S
C656        C657   1.408       .  A
C657        C658   1.403       .  A
C657        H660   1.082       .  S
C658       Br664   1.917       .  S
C665        C666   1.407       .  A
C665        C670   1.404       .  A
C666        C667   1.399       .  A
C666       Br682   1.917       .  S
C667        C668   1.403       .  A
C667        H671   1.083       .  S
C668        C669   1.408       .  A
C668        C672   1.481       .  S
C669        C670   1.402       .  A
C669       Br681   1.917       .  S
C670        H673   1.083       .  S
C672        C674   1.403       .  A
C672        C678   1.408       .  A
C674        C675   1.403       .  A
C674        H679   1.084       .  S
C675        C676   1.413       .  A
C675       Br683   1.920       .  S
C676        C677   1.406       .  A
C677        C678   1.398       .  A
C677        H680   1.084       .  S
C678       Br684   1.920       .  S
C685        C686   1.412       .  A
C685        C690   1.405       .  A
C686        C687   1.403       .  A
C686       Br702   1.915       .  S
C687        C688   1.401       .  A
C687        H691   1.083       .  S
C688        C689   1.407       .  A
C688        C692   1.479       .  S
C689        C690   1.399       .  A
C689       Br701   1.919       .  S
C690        H693   1.083       .  S
C692        C694   1.406       .  A
C692        C698   1.404       .  A
C694        C695   1.408       .  A
C694        H699   1.083       .  S
C695        C696   1.413       .  A
C695       Br703   1.917       .  S
C696        C697   1.407       .  A
C697        C698   1.393       .  A
C697        H700   1.084       .  S
C698       Br704   1.920       .  S
C705        C706   1.414       .  A
C705        C710   1.406       .  A
C706        C707   1.399       .  A
C706       Br722   1.918       .  S
C707        C708   1.399       .  A
C707        H711   1.084       .  S
C708        C709   1.410       .  A
C708        C712   1.483       .  S
C709        C710   1.406       .  A
C709       Br721   1.918       .  S
C710        H713   1.084       .  S
C712        C714   1.404       .  A
C712        C718   1.409       .  A
C714        C715   1.404       .  A
C714        H719   1.083       .  S
C715        C716   1.409       .  A
C715       Br723   1.916       .  S
C716        C717   1.402       .  A
C717        C718   1.400       .  A
C717        H720   1.083       .  S
C718       Br724   1.919       .  S
C725        C726   1.413       .  A
C725        C730   1.404       .  A
C726        C727   1.401       .  A
C726       Br742   1.920       .  S
C727        C728   1.401       .  A
C727        H731   1.084       .  S
C728        C729   1.407       .  A
C728        C732   1.477       .  S
C729        C730   1.397       .  A
C729       Br741   1.919       .  S
C730        H733   1.083       .  S
C732        C734   1.406       .  A
C732        C738   1.403       .  A
C734        C735   1.406       .  A
C734        H739   1.083       .  S
C735        C736   1.411       .  A
C735       Br743   1.917       .  S
C736        C737   1.406       .  A
C737        C738   1.392       .  A
C737        H740   1.083       .  S
C738       Br744   1.920       .  S
C745        C746   1.410       .  A
C745        C750   1.403       .  A
C746        C747   1.396       .  A
C746       Br762   1.920       .  S
C747        C748   1.400       .  A
C747        H751   1.084       .  S
C748        C749   1.409       .  A
C748        C752   1.476       .  S
C749        C750   1.402       .  A
C749       Br761   1.918       .  S
C750        H753   1.083       .  S
C752        C754   1.401       .  A
C752        C758   1.408       .  A
C754        C755   1.401       .  A
C754        H759   1.084       .  S
C755        C756   1.411       .  A
C755       Br763   1.916       .  S
C756        C757   1.402       .  A
C757        C758   1.398       .  A
C757        H760   1.084       .  S
C758       Br764   1.919       .  S
C765        C766   1.406       .  A
C765        C770   1.404       .  A
C766        C767   1.394       .  A
C766       Br782   1.919       .  S
C767        C768   1.403       .  A
C767        H771   1.084       .  S
C768        C769   1.411       .  A
C768        C772   1.482       .  S
C769        C770   1.402       .  A
C769       Br781   1.919       .  S
C770        H773   1.084       .  S
C772        C774   1.397       .  A
C772        C778   1.409       .  A
C774        C775   1.392       .  A
C774        H779   1.084       .  S
C775        C776   1.422       .  A
C775       Br783   1.927       .  S
C776        C777   1.410       .  A
C777        C778   1.406       .  A
C777        H780   1.083       .  S
C778       Br784   1.918       .  S
C785        C786   1.408       .  A
C785        C790   1.404       .  A
C786        C787   1.401       .  A
C786       Br802   1.919       .  S
C787        C788   1.402       .  A
C787        H791   1.084       .  S
C788        C789   1.410       .  A
C788        C792   1.482       .  S
C789        C790   1.403       .  A
C789       Br801   1.919       .  S
C790        H793   1.084       .  S
C792        C794   1.403       .  A
C792        C798   1.409       .  A
C794        C795   1.404       .  A
C794        H799   1.083       .  S
C795        C796   1.412       .  A
C795       Br803   1.917       .  S
C796        C797   1.403       .  A
C797        C798   1.398       .  A
C797        H800   1.083       .  S
C798       Br804   1.919       .  S
C805        C806   1.411       .  A
C805        C810   1.404       .  A
C806        C807   1.394       .  A
C806       Br822   1.918       .  S
C807        C808   1.401       .  A
C807        H811   1.084       .  S
C808        C809   1.412       .  A
C808        C812   1.483       .  S
C809        C810   1.403       .  A
C809       Br821   1.919       .  S
C810        H813   1.083       .  S
C812        C814   1.404       .  A
C812        C818   1.412       .  A
C814        C815   1.401       .  A
C814        H819   1.083       .  S
C815        C816   1.409       .  A
C815       Br823   1.915       .  S
C816        C817   1.400       .  A
C817        C818   1.394       .  A
C817        H820   1.084       .  S
C818       Br824   1.921       .  S
C825        C826   1.412       .  A
C825        C830   1.408       .  A
C826        C827   1.402       .  A
C826       Br842   1.917       .  S
C827        C828   1.403       .  A
C827        H831   1.083       .  S
C828        C829   1.410       .  A
C828        C832   1.487       .  S
C829        C830   1.404       .  A
C829       Br841   1.919       .  S
C830        H833   1.083       .  S
C832        C834   1.397       .  A
C832        C838   1.410       .  A
C834        C835   1.396       .  A
C834        H839   1.084       .  S
C835        C836   1.421       .  A
C835       Br843   1.924       .  S
C836        C837   1.410       .  A
C837        C838   1.410       .  A
C837        H840   1.083       .  S
C838       Br844   1.917       .  S
C845        C846   1.409       .  A
C845        C850   1.404       .  A
C846        C847   1.401       .  A
C846       Br862   1.915       .  S
C847        C848   1.403       .  A
C847        H851   1.083       .  S
C848        C849   1.408       .  A
C848        C852   1.484       .  S
C849        C850   1.402       .  A
C849       Br861   1.917       .  S
C850        H853   1.083       .  S
C852        C854   1.401       .  A
C852        C858   1.410       .  A
C854        C855   1.399       .  A
C854        H859   1.084       .  S
C855        C856   1.412       .  A
C855       Br863   1.921       .  S
C856        C857   1.404       .  A
C857        C858   1.405       .  A
C857        H860   1.084       .  S
C858       Br864   1.918       .  S
C865        C866   1.409       .  A
C865        C870   1.408       .  A
C866        C867   1.396       .  A
C866       Br882   1.917       .  S
C867        C868   1.402       .  A
C867        H871   1.084       .  S
C868        C869   1.406       .  A
C868        C872   1.478       .  S
C869        C870   1.402       .  A
C869       Br881   1.916       .  S
C870        H873   1.083       .  S
C872        C874   1.403       .  A
C872        C878   1.406       .  A
C874        C875   1.403       .  A
C874        H879   1.084       .  S
C875        C876   1.411       .  A
C875       Br883   1.918       .  S
C876        C877   1.405       .  A
C877        C878   1.398       .  A
C877        H880   1.084       .  S
C878       Br884   1.919       .  S
C885        C886   1.409       .  A
C885        C890   1.407       .  A
C886        C887   1.397       .  A
C886       Br902   1.914       .  S
C887        C888   1.402       .  A
C887        H891   1.084       .  S
C888        C889   1.407       .  A
C888        C892   1.482       .  S
C889        C890   1.403       .  A
C889       Br901   1.916       .  S
C890        H893   1.083       .  S
C892        C894   1.403       .  A
C892        C898   1.410       .  A
C894        C895   1.401       .  A
C894        H899   1.084       .  S
C895        C896   1.408       .  A
C895       Br903   1.920       .  S
C896        C897   1.402       .  A
C897        C898   1.401       .  A
C897        H900   1.084       .  S
C898       Br904   1.920       .  S
C905        C906   1.409       .  A
C905        C910   1.404       .  A
C906        C907   1.400       .  A
C906       Br922   1.915       .  S
C907        C908   1.403       .  A
C907        H911   1.084       .  S
C908        C909   1.409       .  A
C908        C912   1.483       .  S
C909        C910   1.403       .  A
C909       Br921   1.916       .  S
C910        H913   1.084       .  S
C912        C914   1.405       .  A
C912        C918   1.405       .  A
C914        C915   1.408       .  A
C914        H919   1.083       .  S
C915        C916   1.415       .  A
C915       Br923   1.917       .  S
C916        C917   1.407       .  A
C917        C918   1.395       .  A
C917        H920   1.081       .  S
C918       Br924   1.920       .  S
C925        C926   1.413       .  A
C925        C930   1.407       .  A
C926        C927   1.399       .  A
C926       Br942   1.914       .  S
C927        C928   1.400       .  A
C927        H931   1.082       .  S
C928        C929   1.408       .  A
C928        C932   1.480       .  S
C929        C930   1.402       .  A
C929       Br941   1.919       .  S
C930        H933   1.085       .  S
C932        C934   1.408       .  A
C932        C938   1.404       .  A
C934        C935   1.408       .  A
C934        H939   1.083       .  S
C935        C936   1.409       .  A
C935       Br943   1.915       .  S
C936        C937   1.405       .  A
C937        C938   1.392       .  A
C937        H940   1.084       .  S
C938       Br944   1.921       .  S
C945        C946   1.411       .  A
C945        C950   1.403       .  A
C946        C947   1.403       .  A
C946       Br962   1.916       .  S
C947        C948   1.403       .  A
C947        H951   1.086       .  S
C948        C949   1.411       .  A
C948        C952   1.486       .  S
C949        C950   1.401       .  A
C949       Br961   1.918       .  S
C950        H953   1.090       .  S
C952        C954   1.401       .  A
C952        C958   1.409       .  A
C954        C955   1.402       .  A
C954        H959   1.082       .  S
C955        C956   1.413       .  A
C955       Br963   1.918       .  S
C956        C957   1.407       .  A
C957        C958   1.407       .  A
C957        H960   1.082       .  S
C958       Br964   1.918       .  S
C965        C966   1.409       .  A
C965        C970   1.406       .  A
C966        C967   1.399       .  A
C966       Br982   1.920       .  S
C967        C968   1.406       .  A
C967        H971   1.084       .  S
C968        C969   1.410       .  A
C968        C972   1.489       .  S
C969        C970   1.401       .  A
C969       Br981   1.918       .  S
C970        H973   1.082       .  S
C972        C974   1.407       .  A
C972        C978   1.411       .  A
C974        C975   1.403       .  A
C974        H979   1.083       .  S
C975        C976   1.409       .  A
C975       Br983   1.917       .  S
C976        C977   1.402       .  A
C977        C978   1.397       .  A
C977        H980   1.084       .  S
C978       Br984   1.921       .  S
C985        C986   1.410       .  A
C985        C990   1.400       .  A
C986        C987   1.403       .  A
C986      Br1002   1.918       .  S
C987        C988   1.405       .  A
C987        H991   1.083       .  S
C988        C989   1.412       .  A
C988        C992   1.485       .  S
C989        C990   1.398       .  A
C989      Br1001   1.920       .  S
C990        H993   1.083       .  S
C992        C994   1.401       .  A
C992        C998   1.412       .  A
C994        C995   1.398       .  A
C994        H999   1.084       .  S
C995        C996   1.410       .  A
C995      Br1003   1.919       .  S
C996        C997   1.403       .  A
C997        C998   1.405       .  A
C997       H1000   1.083       .  S
C998      Br1004   1.919       .  S
C1005      C1006   1.410       .  A
C1005      C1010   1.408       .  A
C1006      C1007   1.399       .  A
C1006     Br1022   1.920       .  S
C1007      C1008   1.404       .  A
C1007      H1011   1.084       .  S
C1008      C1009   1.410       .  A
C1008      C1012   1.490       .  S
C1009      C1010   1.405       .  A
C1009     Br1021   1.917       .  S
C1010      H1013   1.083       .  S
C1012      C1014   1.406       .  A
C1012      C1018   1.410       .  A
C1014      C1015   1.405       .  A
C1014      H1019   1.083       .  S
C1015      C1016   1.409       .  A
C1015     Br1023   1.917       .  S
C1016      C1017   1.404       .  A
C1017      C1018   1.400       .  A
C1017      H1020   1.084       .  S
C1018     Br1024   1.920       .  S
C1025      C1026   1.409       .  A
C1025      C1030   1.401       .  A
C1026      C1027   1.400       .  A
C1026     Br1042   1.919       .  S
C1027      C1028   1.404       .  A
C1027      H1031   1.083       .  S
C1028      C1029   1.413       .  A
C1028      C1032   1.485       .  S
C1029      C1030   1.400       .  A
C1029     Br1041   1.919       .  S
C1030      H1033   1.084       .  S
C1032      C1034   1.402       .  A
C1032      C1038   1.409       .  A
C1034      C1035   1.399       .  A
C1034      H1039   1.084       .  S
C1035      C1036   1.414       .  A
C1035     Br1043   1.921       .  S
C1036      C1037   1.407       .  A
C1037      C1038   1.403       .  A
C1037      H1040   1.083       .  S
C1038     Br1044   1.920       .  S
C1045      C1046   1.408       .  A
C1045      C1050   1.406       .  A
C1046      C1047   1.399       .  A
C1046     Br1062   1.916       .  S
C1047      C1048   1.402       .  A
C1047      H1051   1.084       .  S
C1048      C1049   1.409       .  A
C1048      C1052   1.484       .  S
C1049      C1050   1.405       .  A
C1049     Br1061   1.917       .  S
C1050      H1053   1.084       .  S
C1052      C1054   1.394       .  A
C1052      C1058   1.410       .  A
C1054      C1055   1.395       .  A
C1054      H1059   1.084       .  S
C1055      C1056   1.421       .  A
C1055     Br1063   1.920       .  S
C1056      C1057   1.411       .  A
C1057      C1058   1.412       .  A
C1057      H1060   1.083       .  S
C1058     Br1064   1.917       .  S
C1065      C1066   1.407       .  A
C1065      C1070   1.403       .  A
C1066      C1067   1.405       .  A
C1066     Br1082   1.917       .  S
C1067      C1068   1.406       .  A
C1067      H1071   1.083       .  S
C1068      C1069   1.407       .  A
C1068      C1072   1.481       .  S
C1069      C1070   1.396       .  A
C1069     Br1081   1.919       .  S
C1070      H1073   1.084       .  S
C1072      C1074   1.403       .  A
C1072      C1078   1.406       .  A
C1074      C1075   1.399       .  A
C1074      H1079   1.084       .  S
C1075      C1076   1.413       .  A
C1075     Br1083   1.920       .  S
C1076      C1077   1.408       .  A
C1077      C1078   1.401       .  A
C1077      H1080   1.083       .  S
C1078     Br1084   1.917       .  S
C1085      C1086   1.409       .  A
C1085      C1090   1.406       .  A
C1086      C1087   1.397       .  A
C1086     Br1102   1.919       .  S
C1087      C1088   1.404       .  A
C1087      H1091   1.084       .  S
C1088      C1089   1.408       .  A
C1088      C1092   1.482       .  S
C1089      C1090   1.400       .  A
C1089     Br1101   1.918       .  S
C1090      H1093   1.082       .  S
C1092      C1094   1.406       .  A
C1092      C1098   1.409       .  A
C1094      C1095   1.403       .  A
C1094      H1099   1.084       .  S
C1095      C1096   1.409       .  A
C1095     Br1103   1.918       .  S
C1096      C1097   1.402       .  A
C1097      C1098   1.395       .  A
C1097      H1100   1.084       .  S
C1098     Br1104   1.921       .  S
C1105      C1106   1.414       .  A
C1105      C1110   1.406       .  A
C1106      C1107   1.396       .  A
C1106     Br1122   1.921       .  S
C1107      C1108   1.400       .  A
C1107      H1111   1.084       .  S
C1108      C1109   1.413       .  A
C1108      C1112   1.488       .  S
C1109      C1110   1.408       .  A
C1109     Br1121   1.918       .  S
C1110      H1113   1.083       .  S
C1112      C1114   1.404       .  A
C1112      C1118   1.413       .  A
C1114      C1115   1.402       .  A
C1114      H1119   1.083       .  S
C1115      C1116   1.409       .  A
C1115     Br1123   1.917       .  S
C1116      C1117   1.403       .  A
C1117      C1118   1.402       .  A
C1117      H1120   1.083       .  S
C1118     Br1124   1.919       .  S
C1125      C1126   1.408       .  A
C1125      C1130   1.401       .  A
C1126      C1127   1.400       .  A
C1126     Br1142   1.917       .  S
C1127      C1128   1.405       .  A
C1127      H1131   1.083       .  S
C1128      C1129   1.412       .  A
C1128      C1132   1.486       .  S
C1129      C1130   1.400       .  A
C1129     Br1141   1.919       .  S
C1130      H1133   1.084       .  S
C1132      C1134   1.407       .  A
C1132      C1138   1.408       .  A
C1134      C1135   1.406       .  A
C1134      H1139   1.083       .  S
C1135      C1136   1.410       .  A
C1135     Br1143   1.917       .  S
C1136      C1137   1.405       .  A
C1137      C1138   1.397       .  A
C1137      H1140   1.083       .  S
C1138     Br1144   1.921       .  S
C1145      C1146   1.411       .  A
C1145      C1150   1.407       .  A
C1146      C1147   1.406       .  A
C1146     Br1162   1.917       .  S
C1147      C1148   1.405       .  A
C1147      H1151   1.084       .  S
C1148      C1149   1.405       .  A
C1148      C1152   1.480       .  S
C1149      C1150   1.397       .  A
C1149     Br1161   1.920       .  S
C1150      H1153   1.084       .  S
C1152      C1154   1.403       .  A
C1152      C1158   1.407       .  A
C1154      C1155   1.399       .  A
C1154      H1159   1.084       .  S
C1155      C1156   1.407       .  A
C1155     Br1163   1.917       .  S
C1156      C1157   1.406       .  A
C1157      C1158   1.402       .  A
C1157      H1160   1.082       .  S
C1158     Br1164   1.916       .  S
C1165      C1166   1.409       .  A
C1165      C1170   1.408       .  A
C1166      C1167   1.396       .  A
C1166     Br1182   1.920       .  S
C1167      C1168   1.404       .  A
C1167      H1171   1.084       .  S
C1168      C1169   1.407       .  A
C1168      C1172   1.483       .  S
C1169      C1170   1.403       .  A
C1169     Br1181   1.917       .  S
C1170      H1173   1.082       .  S
C1172      C1174   1.406       .  A
C1172      C1178   1.407       .  A
C1174      C1175   1.406       .  A
C1174      H1179   1.083       .  S
C1175      C1176   1.409       .  A
C1175     Br1183   1.917       .  S
C1176      C1177   1.404       .  A
C1177      C1178   1.395       .  A
C1177      H1180   1.084       .  S
C1178     Br1184   1.921       .  S
C1185      C1186   1.408       .  A
C1185      C1190   1.404       .  A
C1186      C1187   1.402       .  A
C1186     Br1202   1.917       .  S
C1187      C1188   1.406       .  A
C1187      H1191   1.083       .  S
C1188      C1189   1.415       .  A
C1188      C1192   1.494       .  S
C1189      C1190   1.404       .  A
C1189     Br1201   1.920       .  S
C1190      H1193   1.083       .  S
C1192      C1194   1.403       .  A
C1192      C1198   1.414       .  A
C1194      C1195   1.399       .  A
C1194      H1199   1.084       .  S
C1195      C1196   1.413       .  A
C1195     Br1203   1.922       .  S
C1196      C1197   1.407       .  A
C1197      C1198   1.408       .  A
C1197      H1200   1.083       .  S
C1198     Br1204   1.918       .  S
