geometry optimzed in LAMMPS
_audit_creation_date              2020-11-30 
_audit_creation_method            'lammps2cif' 
_symmetry_space_group_name_H-M    'P1' 
_symmetry_Int_Tables_number       1 
_symmetry_cell_setting            triclinic 
loop_ 
_symmetry_equiv_pos_as_xyz 
  x,y,z 
_cell_length_a                    32.059417684281435 
_cell_length_b                    32.13310620651935 
_cell_length_c                    25.833196950677944 
_cell_angle_alpha                 91.39496167864667 
_cell_angle_beta                  90.23511429358945 
_cell_angle_gamma                 120.06588636135089 
loop_ 
_atom_site_label 
_atom_site_type_symbol 
_atom_site_fract_x 
_atom_site_fract_y 
_atom_site_fract_z 
_atom_site_charge 
N1          N  0.84211708  0.77227272  0.78327228    -0.07160
N2          N  0.85725658  0.81867034  0.78834288    -0.59280
N3          N  0.76038793  0.66865841  0.83189145    -0.06840
N4          N  0.72358603  0.65764396  0.86267033    -0.61410
N5          N  0.80106423  0.69016444  0.85888708    -0.06440
N6          N  0.79259918  0.69362697  0.90821230    -0.59260
N7          N  0.80155059  0.75024932  0.75621831    -0.06120
N8          N  0.78810691  0.78108793  0.74245065    -0.61760
C9          C  0.82317598  0.82360780  0.76272143     0.95010
C10         C  0.74415523  0.67258206  0.91051647     0.94790
N11         N  0.74078322  0.57117679  0.70723073    -0.07350
N12         N  0.70959441  0.52440580  0.70455628    -0.59860
N13         N  0.76397102  0.67661289  0.66164299    -0.05470
N14         N  0.74567403  0.69710744  0.63281427    -0.61110
N15         N  0.78198978  0.65559787  0.63235575    -0.07380
N16         N  0.77592137  0.66137987  0.58287183    -0.60130
N17         N  0.72375040  0.59331121  0.73629043    -0.05110
N18         N  0.68091011  0.56232321  0.75358329    -0.61200
Mn19       Mn  0.76132458  0.67181521  0.74646423     1.18440
C20         C  0.67226089  0.51946887  0.73355644     0.97100
C21         C  0.75325277  0.68752303  0.58360034     0.97760
N22         N  0.89968297  0.68987051  0.85852258    -0.07400
N23         N  0.91274495  0.69382386  0.90763758    -0.63710
N24         N  0.95843932  0.74989146  0.75598832    -0.06200
N25         N  0.00260974  0.78068035  0.74181410    -0.64380
N26         N  0.94036753  0.77203137  0.78311502    -0.06900
N27         N  0.97195227  0.81840272  0.78804655    -0.63970
N28         N  0.91811234  0.66800138  0.83132319    -0.05800
N29         N  0.94447396  0.65724809  0.86169747    -0.64660
Mn30       Mn  0.87100125  0.73145928  0.82151876     1.10660
C31         C  0.94046566  0.67312208  0.90945751     0.98320
C32         C  0.01065932  0.82329914  0.76206101     0.98390
N33         N  0.88298861  0.65628582  0.63192477    -0.06910
N34         N  0.89529571  0.66405252  0.58261842    -0.62290
N35         N  0.87912876  0.59268977  0.73517505    -0.06230
N36         N  0.89086956  0.56118302  0.75137696    -0.59010
N37         N  0.83941878  0.57108212  0.70644734    -0.07540
N38         N  0.82301557  0.52427431  0.70305732    -0.61850
N39         N  0.92192012  0.67739989  0.66181253    -0.06530
N40         N  0.96096418  0.70019221  0.63394981    -0.59040
Mn41       Mn  0.81078332  0.61248938  0.66768688     1.20190
Mn42       Mn  0.91999703  0.67147941  0.74612649     1.10090
Cl43       Cl  0.84056224  0.67144737  0.74544701    -0.87010
C44         C  0.94419433  0.69214762  0.58466173     0.95320
C45         C  0.85543449  0.51876367  0.73131991     0.95120
N46         N  0.90261645  0.20813539  0.64485678    -0.07160
N47         N  0.91704332  0.21324657  0.59675298    -0.59280
N48         N  0.96008174  0.21179668  0.75404252    -0.06840
N49         N  0.00292320  0.22397466  0.77377566    -0.61410
N50         N  0.94171925  0.17027521  0.72850252    -0.06440
N51         N  0.97158273  0.15330787  0.73023738    -0.59260
N52         N  0.92236648  0.25011388  0.66968942    -0.06120
N53         N  0.95163390  0.28443629  0.63851249    -0.61760
C54         C  0.94771308  0.26070506  0.59291506     0.95010
C55         C  0.00910797  0.18669686  0.75932866     0.94790
N56         N  0.88218748  0.23543783  0.86731026    -0.07350
N57         N  0.89298608  0.24380609  0.91739216    -0.59860
N58         N  0.87992988  0.29037206  0.75900085    -0.05470
N59         N  0.89068096  0.33288531  0.74147301    -0.61110
N60         N  0.84037523  0.27272068  0.78628846    -0.07380
N61         N  0.82340239  0.30255621  0.78737163    -0.60130
N62         N  0.92182803  0.25355158  0.84013238    -0.05110
N63         N  0.96020705  0.27403525  0.87078622    -0.61200
Mn64       Mn  0.92193344  0.25282914  0.75542347     1.18440
C65         C  0.94182339  0.26789284  0.91859415     0.97100
C66         C  0.85489659  0.34005013  0.75933322     0.97760
N67         N  0.84395391  0.07284017  0.72500131    -0.07400
N68         N  0.86061480  0.04281296  0.72503414    -0.63710
N69         N  0.76338234  0.09244687  0.66599821    -0.06200
N70         N  0.72737597  0.06498863  0.63354671    -0.64380
N71         N  0.80467723  0.11052517  0.64191234    -0.06900
N72         N  0.79748016  0.09627891  0.59279096    -0.63970
N73         N  0.80270331  0.05460695  0.74896486    -0.05800
N74         N  0.79042139  0.01157418  0.76589470    -0.64660
Mn75       Mn  0.87342754  0.14038017  0.68457758     1.10660
C76         C  0.82725229  0.00491470  0.75109308     0.98320
C77         C  0.74915861  0.06882929  0.58771705     0.98390
N78         N  0.74380849  0.17552636  0.78304165    -0.06910
N79         N  0.71508175  0.19365889  0.78256236    -0.62290
N80         N  0.76321502  0.09396104  0.83623491    -0.06230
N81         N  0.74360881  0.05586132  0.86526552    -0.59010
N82         N  0.78161799  0.13373296  0.86508693    -0.07540
N83         N  0.77432936  0.12297353  0.91471362    -0.61850
N84         N  0.72529146  0.13548674  0.75467589    -0.06530
N85         N  0.68301560  0.12535920  0.73476974    -0.59040
Mn86       Mn  0.81156928  0.20452210  0.82714337     1.20190
Mn87       Mn  0.76223614  0.09322726  0.75136305     1.10090
Cl88       Cl  0.84226144  0.17284433  0.75461559    -0.87010
C89         C  0.67743657  0.16240444  0.75216375     0.95320
C90         C  0.75068481  0.07402754  0.91425052     0.95120
N91         N  0.13261999  0.77764860  0.36019913    -0.07160
N92         N  0.12052331  0.77257932  0.40972574    -0.59280
N93         N  0.13777646  0.72042804  0.25071600    -0.06840
N94         N  0.12714850  0.67786042  0.23133448    -0.61410
N95         N  0.17718474  0.73869087  0.27963288    -0.06440
N96         N  0.19439162  0.70900973  0.28014760    -0.59260
N97         N  0.09347779  0.75804494  0.33067055    -0.06120
N98         N  0.05446110  0.73949090  0.35888326    -0.61760
C99         C  0.07141096  0.74835676  0.40807899     0.95010
C100        C  0.16276717  0.67113700  0.24986387     0.94790
N101        N  0.11210474  0.79612691  0.13619714    -0.07350
N102        N  0.09750676  0.78671738  0.08727871    -0.59860
N103        N  0.05439350  0.79376352  0.24298011    -0.05470
N104        N  0.01071780  0.77946907  0.26015490    -0.61110
N105        N  0.07124132  0.83458431  0.21912633    -0.07380
N106        N  0.03927574  0.84894724  0.21949549    -0.60130
N107        N  0.09581940  0.75577435  0.16113611    -0.05110
N108        N  0.06961819  0.71842516  0.12963534    -0.61200
Mn109      Mn  0.09488953  0.75596377  0.24616238     1.18440
C110        C  0.07189936  0.73813927  0.08337559     0.97100
C111        C  0.00173014  0.81426824  0.24529613     0.97760
N112        N  0.27355789  0.83705102  0.28155049    -0.07400
N113        N  0.30444053  0.82129111  0.28293108    -0.63710
N114        N  0.25183835  0.91799243  0.33517795    -0.06200
N115        N  0.27181207  0.95646467  0.36636197    -0.64380
N116        N  0.23299088  0.87855996  0.36209008    -0.06900
N117        N  0.23969639  0.88949228  0.41224746    -0.63970
N118        N  0.29041360  0.87573233  0.25343465    -0.05800
N119        N  0.33321648  0.88703554  0.23529698    -0.64660
Mn120      Mn  0.20447262  0.80766881  0.32260123     1.10660
C121        C  0.34101985  0.85227556  0.25337015     0.98320
C122        C  0.26376307  0.93820660  0.41417189     0.98390
N123        N  0.16878250  0.93507933  0.22224610    -0.06910
N124        N  0.15255022  0.96563720  0.22312507    -0.62290
N125        N  0.25072244  0.91687971  0.16373806    -0.06230
N126        N  0.28572102  0.94724093  0.13369907    -0.59010
N127        N  0.20911842  0.89738818  0.13833889    -0.07540
N128        N  0.21529851  0.91360728  0.09098737    -0.61850
N129        N  0.21013323  0.95363002  0.24780099    -0.06530
N130        N  0.22276254  0.99693748  0.26659514    -0.59040
Mn131      Mn  0.14001217  0.86595726  0.17835066     1.20190
Mn132      Mn  0.25206011  0.91673041  0.24982373     1.10090
Cl133      Cl  0.17303614  0.83661249  0.24908029    -0.87010
C134        C  0.18662343  0.00411686  0.25101019     0.95320
C135        C  0.26308081  0.94445845  0.08818804     0.95120
N136        N  0.44371354  0.27257287  0.78933222    -0.07160
N137        N  0.49066836  0.30232331  0.78789865    -0.59280
N138        N  0.34315533  0.25188256  0.84551701    -0.06840
N139        N  0.32463292  0.27108181  0.87665043    -0.61410
N140        N  0.36604869  0.23477282  0.87209107    -0.06440
N141        N  0.36400737  0.24261841  0.92231590    -0.59260
N142        N  0.42046381  0.28962837  0.76326380    -0.06120
N143        N  0.45121536  0.33167885  0.74415940    -0.61760
C144        C  0.49492680  0.33885698  0.75928235     0.95010
C145        C  0.33825507  0.26556945  0.92414287     0.94790
N146        N  0.23846407  0.16859614  0.73448122    -0.07350
N147        N  0.19162206  0.15207512  0.73478459    -0.59860
N148        N  0.33683123  0.24956868  0.67573622    -0.05470
N149        N  0.34286358  0.28462183  0.64520493    -0.61110
N150        N  0.31397019  0.20793229  0.65031787    -0.07380
N151        N  0.30470699  0.21397594  0.60234398    -0.60130
N152        N  0.26171357  0.21001780  0.76020958    -0.05110
N153        N  0.23109440  0.22261307  0.77856761    -0.61200
Mn154      Mn  0.34099477  0.25152680  0.76110016     1.18440
C155        C  0.18751959  0.18563498  0.76318051     0.97100
C156        C  0.32301025  0.26189148  0.59916756     0.97760
N157        N  0.36614968  0.13423652  0.86912122    -0.07400
N158        N  0.36328177  0.12443495  0.91895753    -0.63710
N159        N  0.42277594  0.13612474  0.75846351    -0.06200
N160        N  0.45519127  0.12590323  0.73997631    -0.64380
N161        N  0.44420632  0.17643244  0.78641239    -0.06900
N162        N  0.49112979  0.19470780  0.78687308    -0.63970
N163        N  0.34475651  0.09401459  0.84084492    -0.05800
N164        N  0.32703693  0.05628908  0.87059126    -0.64660
Mn165      Mn  0.40564655  0.20474958  0.83084607     1.10660
C166        C  0.33898571  0.07564701  0.91905666     0.98320
C167        C  0.49776899  0.16303568  0.75818873     0.98390
N168        N  0.31551154  0.11031981  0.64657562    -0.06910
N169        N  0.30664765  0.09524850  0.59775237    -0.62290
N170        N  0.26370829  0.05410107  0.75377094    -0.06230
N171        N  0.23312890  0.01085740  0.77046035    -0.59010
N172        N  0.24020014  0.07227012  0.73043863    -0.07540
N173        N  0.19345023  0.04215891  0.73083568    -0.61850
N174        N  0.33974659  0.09279957  0.66992051    -0.06530
N175        N  0.34750932  0.06527192  0.63701276    -0.59040
Mn176      Mn  0.27686547  0.13966239  0.68993533     1.20190
Mn177      Mn  0.34320254  0.09324317  0.75554003     1.10090
Cl178      Cl  0.34179071  0.17233039  0.75931725    -0.87010
C179        C  0.32758301  0.06807336  0.59184509     0.95320
C180        C  0.18936409  0.00426309  0.75638967     0.95120
N181        N  0.07112038  0.23784198  0.23350326    -0.07160
N182        N  0.03971711  0.19145975  0.23298876    -0.59280
N183        N  0.09359109  0.33744768  0.17457819    -0.06840
N184        N  0.06683115  0.34578552  0.14194346    -0.61410
N185        N  0.11148231  0.31352677  0.15061502    -0.06440
N186        N  0.09818927  0.30603264  0.10156823    -0.59260
N187        N  0.05380078  0.26215085  0.25775271    -0.06120
N188        N  0.00990908  0.23265779  0.27415797    -0.61760
C189        C  0.00176174  0.18860558  0.25855387     0.95010
C190        C  0.07049939  0.32636488  0.09615993     0.94790
N191        N  0.17931687  0.44218549  0.29023430    -0.07350
N192        N  0.19816138  0.48920476  0.28788812    -0.59860
N193        N  0.09640048  0.34346257  0.34469143    -0.05470
N194        N  0.05863451  0.32616248  0.37475406    -0.61110
N195        N  0.13668023  0.36495306  0.37250808    -0.07380
N196        N  0.12689044  0.36295186  0.42242340    -0.60130
N197        N  0.13904078  0.41977180  0.26259842    -0.05110
N198        N  0.12957128  0.45103071  0.24127338    -0.61200
Mn199      Mn  0.09475924  0.34115275  0.25989214     1.18440
C200        C  0.16698272  0.49426756  0.25688815     0.97100
C201        C  0.07805199  0.33899361  0.42285788     0.97760
N202        N  0.20646336  0.30986889  0.15071208    -0.07400
N203        N  0.21119469  0.30038928  0.10210831    -0.63710
N204        N  0.20886337  0.25674526  0.25816464    -0.06200
N205        N  0.22051015  0.22545063  0.27538031    -0.64380
N206        N  0.16687426  0.23419402  0.23388821    -0.06900
N207        N  0.14909583  0.18727167  0.23400147    -0.63970
N208        N  0.24862554  0.33194954  0.17466574    -0.05800
N209        N  0.28276695  0.33687906  0.14251012    -0.64660
Mn210      Mn  0.13883406  0.27359262  0.19193707     1.10660
C211        C  0.25869471  0.31708292  0.09708553     0.98320
C212        C  0.18252623  0.18209563  0.26055307     0.98390
N213        N  0.23572253  0.36078465  0.37270889    -0.06910
N214        N  0.24236543  0.35619800  0.42253843    -0.62290
N215        N  0.29063613  0.41529619  0.26247799    -0.06230
N216        N  0.33152521  0.44590345  0.24052293    -0.59010
N217        N  0.27433554  0.43872377  0.29037539    -0.07540
N218        N  0.30337810  0.48542199  0.28750639    -0.61850
N219        N  0.25218875  0.33786595  0.34413790    -0.06530
N220        N  0.26970924  0.31715499  0.37331741    -0.59040
Mn221      Mn  0.20707783  0.40259600  0.33360767     1.20190
Mn222      Mn  0.25156911  0.33601223  0.25975638     1.10090
Cl223      Cl  0.17311960  0.33848979  0.26169722    -0.87010
C224        C  0.26319225  0.32825902  0.42199773     0.95320
C225        C  0.33895522  0.48971121  0.25624662     0.95120
N226        N  0.77326616  0.83575525  0.21533462    -0.07160
N227        N  0.81994505  0.85146541  0.21637501    -0.59280
N228        N  0.66939974  0.75527650  0.15817004    -0.06840
N229        N  0.65805925  0.71767531  0.12712906    -0.61410
N230        N  0.69264754  0.79540594  0.13258102    -0.06440
N231        N  0.69682346  0.78545064  0.08359741    -0.59260
N232        N  0.75003668  0.79514341  0.23980908    -0.06120
N233        N  0.78047266  0.78244020  0.25801218    -0.61760
C234        C  0.82410012  0.81823899  0.24356922     0.95010
C235        C  0.67419628  0.73682524  0.08040139     0.94790
N236        N  0.57203217  0.73966919  0.27668293    -0.07350
N237        N  0.52506054  0.71134667  0.27795366    -0.59860
N238        N  0.67532555  0.75934867  0.32818266    -0.05470
N239        N  0.69563986  0.74124824  0.35758276    -0.61110
N240        N  0.65559634  0.77906174  0.35673839    -0.07380
N241        N  0.66200711  0.77429289  0.40648904    -0.60130
N242        N  0.59172021  0.71979543  0.24837664    -0.05110
N243        N  0.55805998  0.67696411  0.23028158    -0.61200
Mn244      Mn  0.67110579  0.75610919  0.24335217     1.18440
C245        C  0.51637163  0.67232437  0.24889527     0.97100
C246        C  0.68736705  0.75074015  0.40650163     0.97760
N247        N  0.69619999  0.89694593  0.13385795    -0.07400
N248        N  0.70403595  0.91223470  0.08595858    -0.63710
N249        N  0.75263175  0.95398642  0.24319358    -0.06200
N250        N  0.78309033  0.99726202  0.26241539    -0.64380
N251        N  0.77557094  0.93584290  0.21767373    -0.06900
N252        N  0.82243088  0.96674366  0.21915215    -0.63970
N253        N  0.67452400  0.91628267  0.15992782    -0.05800
N254        N  0.66821381  0.94572915  0.13018403    -0.64660
Mn255      Mn  0.73494771  0.86613697  0.17397252     1.10660
C256        C  0.68570218  0.94193714  0.08380676     0.98320
C257        C  0.82659052  0.00470503  0.24766875     0.98390
N258        N  0.65639994  0.87940650  0.35788164    -0.06910
N259        N  0.66074666  0.89060212  0.40793890    -0.62290
N260        N  0.59474601  0.87566356  0.24960927    -0.06230
N261        N  0.56297546  0.88718693  0.23261722    -0.59010
N262        N  0.57335524  0.83693995  0.27762039    -0.07540
N263        N  0.52671882  0.82119252  0.27991142    -0.61850
N264        N  0.67687050  0.91864278  0.33076790    -0.06530
N265        N  0.69562888  0.95724864  0.36171180    -0.59040
Mn266      Mn  0.61384973  0.80850040  0.31871129     1.20190
Mn267      Mn  0.67411331  0.91668609  0.24560431     1.10090
Cl268      Cl  0.67335810  0.83681139  0.24514148    -0.87010
C269        C  0.68566185  0.93933908  0.40972957     0.95320
C270        C  0.52065166  0.85241667  0.25124030     0.95120
C271        C  0.95867407  0.10061871  0.26486504    -0.21350
C272        C  0.95597895  0.14278032  0.26312548    -0.07920
C273        C  0.91027787  0.13932208  0.26007231     0.12950
C274        C  0.86872027  0.09361454  0.25684316    -0.21400
C275        C  0.87168330  0.05142165  0.25563703    -0.07920
C276        C  0.91725000  0.05511624  0.26109705     0.12940
C277        C  0.92266358  0.01146750  0.26340206    -0.24750
H278        H  0.99370037  0.10329193  0.26788595     0.14230
H279        H  0.83374671  0.09090214  0.25309655     0.14260
C280        C  0.90487897  0.18319282  0.25744492    -0.24700
H281        H  0.96060825  0.02109062  0.27127002     0.04470
H282        H  0.91143819  0.99152469  0.22566085     0.07700
H283        H  0.90017711  0.98826503  0.29487359     0.07700
H284        H  0.92424025  0.20450416  0.22344887     0.07680
H285        H  0.91962798  0.20558163  0.29348935     0.07680
H286        H  0.86650163  0.17345348  0.25340068     0.04450
C287        C  0.38527837  0.57773622  0.27093119    -0.21350
C288        C  0.38245013  0.53695730  0.24631432    -0.07920
C289        C  0.42162857  0.54273793  0.21597432     0.12950
C290        C  0.46404422  0.58796458  0.21570714    -0.21400
C291        C  0.46832378  0.62769378  0.24445130    -0.07920
C292        C  0.42723111  0.62279321  0.27058990     0.12940
C293        C  0.42660255  0.66390965  0.29952888    -0.24750
H294        H  0.35478210  0.57418730  0.29253091     0.14230
H295        H  0.49461777  0.59183751  0.19407630     0.14260
C296        C  0.41959512  0.50187209  0.18405214    -0.24700
H297        H  0.39044754  0.65330199  0.31503927     0.04470
H298        H  0.43615877  0.69402628  0.27312955     0.07700
H299        H  0.45200579  0.67609094  0.33321193     0.07700
H300        H  0.38819960  0.48688177  0.15674561     0.07680
H301        H  0.41673966  0.47339479  0.20966073     0.07680
H302        H  0.45250646  0.51383822  0.16074111     0.04450
C303        C  0.29228363  0.25283595  0.50967779    -0.21350
C304        C  0.31177929  0.28289412  0.55402805    -0.07920
C305        C  0.31505288  0.32864665  0.55486045     0.12950
C306        C  0.29794630  0.34227484  0.51173990    -0.21400
C307        C  0.27812902  0.31166121  0.46783157    -0.07920
C308        C  0.27519101  0.26617003  0.46703125     0.12940
C309        C  0.25245124  0.23020820  0.42229821    -0.24750
H310        H  0.28961462  0.21785692  0.50841090     0.14230
H311        H  0.30060058  0.37724201  0.51201870     0.14260
C312        C  0.33580530  0.36314420  0.60075248    -0.24700
H313        H  0.24893102  0.19490083  0.43095136     0.04470
H314        H  0.27502979  0.24339155  0.38747076     0.07700
H315        H  0.21570814  0.22388987  0.41377641     0.07700
H316        H  0.37360566  0.37216502  0.60821993     0.07680
H317        H  0.31378858  0.34684255  0.63540577     0.07680
H318        H  0.33610034  0.39730928  0.59408650     0.04450
C319        C  0.27056906  0.25322775  0.97672749    -0.21350
C320        C  0.32039415  0.27726450  0.97114285    -0.07920
C321        C  0.35040229  0.31504191  0.00608880     0.12950
C322        C  0.32935574  0.32767009  0.04668982    -0.21400
C323        C  0.27899781  0.30372104  0.05235640    -0.07920
C324        C  0.24921401  0.26549271  0.01671016     0.12940
C325        C  0.19495714  0.23627618  0.02000342    -0.24750
H326        H  0.24807087  0.22469863  0.94894576     0.14230
H327        H  0.35230180  0.35673166  0.07371218     0.14260
C328        C  0.40416308  0.34286843  0.99941922    -0.24700
H329        H  0.17871711  0.20742088  0.98937358     0.04470
H330        H  0.17912565  0.25973324  0.01475399     0.07700
H331        H  0.18458963  0.21841000  0.05781590     0.07700
H332        H  0.41261980  0.35983143  0.96104451     0.07680
H333        H  0.41891767  0.31823698  0.00185445     0.07680
H334        H  0.42233635  0.37174807  0.02976438     0.04450
C335        C  0.32748666  0.98934051  0.02390798    -0.21350
C336        C  0.28434679  0.98051285  0.04701731    -0.07920
C337        C  0.26189807  0.00657656  0.03054379     0.12950
C338        C  0.28214814  0.03923183  0.99042782    -0.21400
C339        C  0.32384283  0.04629890  0.96583387    -0.07920
C340        C  0.34709155  0.02144370  0.98289311     0.12940
C341        C  0.39233921  0.02864649  0.95752910    -0.24750
H342        H  0.34505751  0.96998884  0.03689585     0.14230
H343        H  0.26446473  0.05832489  0.97700085     0.14260
C344        C  0.21694894  0.00096122  0.05548765    -0.24700
H345        H  0.40626481  0.00691498  0.97571292     0.04470
H346        H  0.42072749  0.06714616  0.96114853     0.07700
H347        H  0.38492815  0.01778426  0.91588436     0.07700
H348        H  0.22296686  0.00767590  0.09796994     0.07680
H349        H  0.18613873  0.96425290  0.04729628     0.07680
H350        H  0.20673416  0.02675293  0.04034887     0.04450
C351        C  0.26497237  0.99700075  0.54345940    -0.21350
C352        C  0.31372841  0.03261163  0.54862763    -0.07920
C353        C  0.34661781  0.03547824  0.51095403     0.12950
C354        C  0.32950637  0.00356512  0.46764790    -0.21400
C355        C  0.28052599  0.96830759  0.46215995    -0.07920
C356        C  0.24798951  0.96451810  0.50086648     0.12940
C357        C  0.19504449  0.92781409  0.49616252    -0.24750
H358        H  0.23988612  0.99515553  0.57261529     0.14230
H359        H  0.35434405  0.00631862  0.43773784     0.14260
C360        C  0.39921475  0.07293076  0.51582604    -0.24700
H361        H  0.17452206  0.93096611  0.52909488     0.04470
H362        H  0.18989728  0.89099023  0.49571935     0.07700
H363        H  0.17978256  0.93298093  0.45982159     0.07700
H364        H  0.41462404  0.06793376  0.55214548     0.07680
H365        H  0.40343329  0.10940856  0.51677067     0.07680
H366        H  0.42003492  0.07042064  0.48282711     0.04450
C367        C  0.14186644  0.04832624  0.25981301    -0.21350
C368        C  0.18644020  0.04995435  0.25870452    -0.07920
C369        C  0.22947085  0.09526104  0.26207777     0.12950
C370        C  0.22659111  0.13738478  0.26505325    -0.21400
C371        C  0.18210471  0.13586027  0.26388964    -0.07920
C372        C  0.13902891  0.09057618  0.26249601     0.12940
C373        C  0.08993879  0.08615487  0.26453007    -0.24750
H374        H  0.10895191  0.01370167  0.25793301     0.14230
H375        H  0.25956622  0.17193009  0.26613981     0.14260
C376        C  0.27874134  0.10014501  0.25993537    -0.24700
H377        H  0.06074956  0.04810305  0.26733028     0.04470
H378        H  0.08271886  0.10019428  0.22886175     0.07700
H379        H  0.08798659  0.10639274  0.29901551     0.07700
H380        H  0.28191662  0.08263032  0.22374148     0.07680
H381        H  0.28479175  0.08350206  0.29415475     0.07680
H382        H  0.30795486  0.13839385  0.26030066     0.04450
C383        C  0.20840342  0.62764016  0.24928568    -0.21350
C384        C  0.16379498  0.62570662  0.24425956    -0.07920
C385        C  0.12115385  0.58036320  0.23845740     0.12950
C386        C  0.12420378  0.53849609  0.24031579    -0.21400
C387        C  0.16836393  0.54032296  0.24858081    -0.07920
C388        C  0.21134830  0.58554087  0.25136617     0.12940
C389        C  0.26034392  0.58994971  0.25596921    -0.24750
H390        H  0.24111764  0.66235834  0.25274961     0.14230
H391        H  0.09131643  0.50392929  0.23765775     0.14260
C392        C  0.07183621  0.57510868  0.23312672    -0.24700
H393        H  0.28985164  0.62790574  0.25359332     0.04470
H394        H  0.26493826  0.56890997  0.22400891     0.07700
H395        H  0.26448467  0.57673755  0.29380656     0.07700
H396        H  0.06941514  0.59179046  0.19697272     0.07680
H397        H  0.06480896  0.59232497  0.26718084     0.07680
H398        H  0.04277508  0.53679571  0.23101870     0.04450
C399        C  0.41665365  0.86764219  0.29532672    -0.21350
C400        C  0.38746948  0.85351024  0.25055239    -0.07920
C401        C  0.40241864  0.83968616  0.20520609     0.12950
C402        C  0.44675425  0.84052353  0.20569736    -0.21400
C403        C  0.47571518  0.85432884  0.25077606    -0.07920
C404        C  0.46068230  0.86830370  0.29598329     0.12940
C405        C  0.49134973  0.88445557  0.34480375    -0.24750
H406        H  0.40482851  0.87816101  0.32999870     0.14230
H407        H  0.45837785  0.82945928  0.17124988     0.14260
C408        C  0.37095698  0.82281130  0.15708820    -0.24700
H409        H  0.47480996  0.89544266  0.37602553     0.04470
H410        H  0.52730848  0.91574033  0.33677384     0.07700
H411        H  0.49588408  0.85468716  0.35922504     0.07700
H412        H  0.36492031  0.85191476  0.14352863     0.07680
H413        H  0.33566085  0.79081442  0.16568585     0.07680
H414        H  0.38765974  0.81267213  0.12526735     0.04450
C415        C  0.86806627  0.77344030  0.25318230    -0.21350
C416        C  0.86981010  0.81789271  0.25072651    -0.07920
C417        C  0.91514154  0.86067950  0.25264331     0.12950
C418        C  0.95728719  0.85792566  0.25337152    -0.21400
C419        C  0.95566183  0.81358095  0.25222781    -0.07920
C420        C  0.91041180  0.77060939  0.25363851     0.12940
C421        C  0.90603809  0.72165451  0.25303584    -0.24750
H422        H  0.83339047  0.74059418  0.25240160     0.14230
H423        H  0.99193133  0.89082841  0.25356523     0.14260
C424        C  0.91976549  0.90953902  0.25428310    -0.24700
H425        H  0.86780042  0.69227848  0.25255291     0.04470
H426        H  0.92362616  0.71788249  0.28829838     0.07700
H427        H  0.92314190  0.71676503  0.21788698     0.07700
H428        H  0.89830701  0.91186405  0.28667149     0.07680
H429        H  0.90706403  0.91586022  0.21692737     0.07680
H430        H  0.95775389  0.93869080  0.26047052     0.04450
C431        C  0.97777144  0.32019641  0.99752933    -0.21350
C432        C  0.97225259  0.28177714  0.96555162    -0.07920
C433        C  0.99959625  0.25963901  0.97566557     0.12950
C434        C  0.03175274  0.27609551  0.01775719    -0.21400
C435        C  0.03758886  0.31433182  0.05059288    -0.07920
C436        C  0.01038865  0.33701536  0.04006578     0.12940
C437        C  0.01630135  0.37942049  0.07223629    -0.24750
H438        H  0.95726006  0.33765156  0.98851743     0.14230
H439        H  0.05197853  0.25808999  0.02523069     0.14260
C440        C  0.99440684  0.21797356  0.94244318    -0.24700
H441        H  0.99441333  0.39431743  0.05632921     0.04470
H442        H  0.05468815  0.40845932  0.07290224     0.07700
H443        H  0.00427769  0.36837261  0.11229193     0.07700
H444        H  0.00549633  0.22969776  0.90232629     0.07680
H445        H  0.95631662  0.18830291  0.94196018     0.07680
H446        H  0.01723039  0.20366579  0.95712271     0.04450
C447        C  0.00206422  0.32999269  0.53883483    -0.21350
C448        C  0.98194697  0.28101295  0.54966253    -0.07920
C449        C  0.99652155  0.25258065  0.52014224     0.12950
C450        C  0.02951273  0.27363390  0.48044439    -0.21400
C451        C  0.04866142  0.32196514  0.46928827    -0.07920
C452        C  0.03490827  0.35066922  0.49840598     0.12940
C453        C  0.05397795  0.40255713  0.48589300    -0.24750
H454        H  0.99134284  0.35189042  0.56137505     0.14230
H455        H  0.04004970  0.25196425  0.45716753     0.14260
C456        C  0.97885482  0.20027666  0.53020735    -0.24700
H457        H  0.03946860  0.41991744  0.51221676     0.04470
H458        H  0.04351806  0.40500119  0.44552543     0.07700
H459        H  0.09388073  0.42266712  0.48984874     0.07700
H460        H  0.93958499  0.17832191  0.52166938     0.07680
H461        H  0.98683998  0.19621646  0.57103622     0.07680
H462        H  0.99670570  0.18542613  0.50520256     0.04450
C463        C  0.72973096  0.02534887  0.05194789    -0.21350
C464        C  0.69729491  0.97627520  0.04165825    -0.07920
C465        C  0.68084486  0.96026863  0.99048847     0.12950
C466        C  0.69791709  0.99343431  0.95058005    -0.21400
C467        C  0.73190748  0.04250878  0.96006501    -0.07920
C468        C  0.74762055  0.05866419  0.01186320     0.12940
C469        C  0.78447742  0.11023283  0.02523119    -0.24750
H470        H  0.74274280  0.03730904  0.09140150     0.14230
H471        H  0.68495487  0.98048109  0.91134935     0.14260
C472        C  0.64505321  0.90813764  0.97802112    -0.24700
H473        H  0.79361296  0.11591544  0.06729451     0.04470
H474        H  0.77015170  0.13407249  0.01486973     0.07700
H475        H  0.81822937  0.12065855  0.00403113     0.07700
H476        H  0.61172479  0.89691516  0.00035204     0.07680
H477        H  0.66066519  0.88537688  0.98831341     0.07680
H478        H  0.63500564  0.90175014  0.93618841     0.04450
C479        C  0.69727241  0.01331023  0.45548583    -0.21350
C480        C  0.69795076  0.96991914  0.45753444    -0.07920
C481        C  0.71235445  0.95807038  0.50413702     0.12950
C482        C  0.72658835  0.99030160  0.54691515    -0.21160
C483        C  0.72678506  0.03389950  0.54428360    -0.07920
C484        C  0.71148499  0.04541635  0.49845414     0.12940
C485        C  0.71081817  0.09176733  0.49486922    -0.24750
H486        H  0.68597398  0.02236759  0.41991623     0.14230
H487        H  0.73923944  0.98223233  0.58222532     0.14260
C488        C  0.71523796  0.91291506  0.50837507    -0.24700
H489        H  0.69758160  0.09518248  0.45629094     0.04470
H490        H  0.74777047  0.12277773  0.50140708     0.07700
H491        H  0.68666793  0.09313500  0.52472970     0.07700
H492        H  0.73930932  0.91190099  0.47817783     0.07680
H493        H  0.67871999  0.88091078  0.50357236     0.07680
H494        H  0.72983137  0.91088696  0.54671800     0.04450
C495        C  0.08800007  0.20897582  0.72329106    -0.21350
C496        C  0.05533666  0.18784737  0.76332130    -0.07920
C497        C  0.06633686  0.16640635  0.80420670     0.12950
C498        C  0.11050547  0.16702454  0.80432768    -0.21400
C499        C  0.14302169  0.18802299  0.76401108    -0.07920
C500        C  0.13167134  0.20901247  0.72294452     0.12940
C501        C  0.16532232  0.23075197  0.67833595    -0.24750
H502        H  0.07884903  0.22475592  0.69171335     0.14230
H503        H  0.11933103  0.15041947  0.83534162     0.14260
C504        C  0.03123229  0.14239637  0.84695939    -0.24700
H505        H  0.15081000  0.24553585  0.64948091     0.04470
H506        H  0.17074126  0.20289208  0.65829968     0.07700
H507        H  0.20066196  0.26047472  0.69289033     0.07700
H508        H  0.99689240  0.11248453  0.83050511     0.07680
H509        H  0.02400039  0.16892886  0.86705191     0.07680
H510        H  0.04544791  0.12745820  0.87598140     0.04450
C511        C  0.55550657  0.14610371  0.71079628    -0.21350
C512        C  0.54481554  0.16509750  0.75505567    -0.07920
C513        C  0.57881168  0.18454968  0.79672027     0.12950
C514        C  0.62167797  0.18358775  0.79325174    -0.21400
C515        C  0.63207088  0.16372060  0.74979573    -0.07920
C516        C  0.59908792  0.14556610  0.70743152     0.12940
C517        C  0.61018531  0.12702629  0.65837262    -0.24750
H518        H  0.52974998  0.13182148  0.67869016     0.14230
H519        H  0.64693244  0.19752001  0.82582008     0.14260
C520        C  0.56999780  0.20466510  0.84631091    -0.24700
H521        H  0.58158655  0.11676201  0.62823726     0.04470
H522        H  0.61289889  0.09470060  0.66625668     0.07700
H523        H  0.64475050  0.15539845  0.64260181     0.07700
H524        H  0.53589213  0.17726332  0.86377598     0.07680
H525        H  0.56847626  0.23768225  0.83847869     0.07680
H526        H  0.59928864  0.21494365  0.87559203     0.04450
C527        C  0.95771151  0.69038856  0.00321123    -0.21350
C528        C  0.97147143  0.67947364  0.95548424    -0.07920
C529        C  0.01692596  0.68192665  0.95235916     0.12950
C530        C  0.04847468  0.69888418  0.99575510    -0.21400
C531        C  0.03556407  0.71291445  0.04185187    -0.07920
C532        C  0.98919934  0.70731796  0.04620897     0.12940
C533        C  0.97364099  0.72131439  0.09557297    -0.24750
H534        H  0.92280772  0.68788790  0.00629460     0.14230
H535        H  0.08413286  0.70309304  0.99308495     0.14260
C536        C  0.03372339  0.66914474  0.90326097    -0.24700
H537        H  0.93641158  0.71518027  0.09210697     0.04470
H538        H  0.99818311  0.76006682  0.10521624     0.07700
H539        H  0.97453095  0.69958023  0.12784397     0.07700
H540        H  0.03674149  0.69368449  0.87216778     0.07680
H541        H  0.00796736  0.63127600  0.89115306     0.07680
H542        H  0.06972000  0.67253743  0.90855008     0.04450
C543        C  0.96484841  0.67644548  0.49635037    -0.21350
C544        C  0.97641784  0.70816831  0.53916346    -0.07920
C545        C  0.01997008  0.75317192  0.53899323     0.12950
C546        C  0.05080759  0.76482746  0.49638632    -0.21400
C547        C  0.03921420  0.73302150  0.45360706    -0.07920
C548        C  0.99563696  0.68803812  0.45382181     0.12940
C549        C  0.98200882  0.65106432  0.41032822    -0.24750
H550        H  0.93199963  0.64179595  0.49671511     0.14230
H551        H  0.08370071  0.79941924  0.49598988     0.14260
C552        C  0.03351598  0.78993850  0.58267970    -0.24700
H553        H  0.94902982  0.61665405  0.41905456     0.04470
H554        H  0.01172054  0.64328914  0.40402277     0.07700
H555        H  0.97446488  0.66429640  0.37424035     0.07700
H556        H  0.04073621  0.77644141  0.61875684     0.07680
H557        H  0.00385723  0.79780501  0.58892591     0.07680
H558        H  0.06663122  0.82431357  0.57419673     0.04450
C559        C  0.86768422  0.91204255  0.75746808    -0.21350
C560        C  0.82317775  0.86945438  0.76033264    -0.07920
C561        C  0.78034789  0.87185302  0.76289021     0.12950
C562        C  0.78324783  0.91678700  0.76120502    -0.21400
C563        C  0.82761667  0.95933289  0.75635568    -0.07920
C564        C  0.87059752  0.95696093  0.75500115     0.12940
C565        C  0.91978700  0.00128035  0.75197133    -0.24750
H566        H  0.90046095  0.91006430  0.75628658     0.14230
H567        H  0.75034978  0.91850622  0.76259490     0.14260
C568        C  0.73157820  0.82762671  0.76888341    -0.24700
H569        H  0.94912365  0.99256762  0.75525002     0.04470
H570        H  0.92491651  0.02711773  0.78407457     0.07700
H571        H  0.92377331  0.01842059  0.71415819     0.07700
H572        H  0.73183669  0.80824196  0.80378419     0.07680
H573        H  0.72226583  0.80359132  0.73400558     0.07680
H574        H  0.70266070  0.83681587  0.77348312     0.04450
C575        C  0.82026268  0.43832500  0.76902597    -0.21350
C576        C  0.85428887  0.47267639  0.73669185    -0.07920
C577        C  0.88720606  0.46303308  0.71068627     0.12950
C578        C  0.88589985  0.41928860  0.71834819    -0.21400
C579        C  0.85253392  0.38477267  0.75167279    -0.07920
C580        C  0.81896591  0.39459654  0.77729087     0.12940
C581        C  0.78208213  0.36018082  0.81408811    -0.24750
H582        H  0.79508847  0.44625441  0.78870705     0.14230
H583        H  0.91141165  0.41223558  0.69821534     0.14260
C584        C  0.92327823  0.49867049  0.67422777    -0.24700
H585        H  0.75965503  0.37448823  0.83060249     0.04470
H586        H  0.80044119  0.35392868  0.84701229     0.07700
H587        H  0.75729986  0.32566744  0.79339928     0.07700
H588        H  0.94764013  0.53292675  0.69557915     0.07680
H589        H  0.90408189  0.50570540  0.64278691     0.07680
H590        H  0.94577415  0.48514316  0.65617222     0.04450
C591        C  0.05626163  0.91214158  0.76620360    -0.21350
C592        C  0.05707250  0.86902485  0.76031998    -0.07920
C593        C  0.10195909  0.87078162  0.75543991     0.12950
C594        C  0.14449846  0.91557302  0.75617045    -0.21400
C595        C  0.14348234  0.95858819  0.76055740    -0.07920
C596        C  0.09875555  0.95692741  0.76593886     0.12940
C597        C  0.09534097  0.00191219  0.77263699    -0.24750
H598        H  0.02198628  0.91084284  0.77041635     0.14230
H599        H  0.17881757  0.91701788  0.75188421     0.14260
C600        C  0.10592051  0.82603335  0.75045232    -0.24700
H601        H  0.05785161  0.99345006  0.78027347     0.04470
H602        H  0.10678049  0.02298577  0.73689439     0.07700
H603        H  0.11843642  0.02414561  0.80592259     0.07700
H604        H  0.08821607  0.80602020  0.71381911     0.07680
H605        H  0.08890620  0.80287683  0.78404288     0.07680
H606        H  0.14405330  0.83461651  0.74950841     0.04450
C607        C  0.62730859  0.43011662  0.73726580    -0.21350
C608        C  0.62650499  0.47343794  0.74011942    -0.07920
C609        C  0.58192615  0.47175998  0.74823568     0.12950
C610        C  0.53986102  0.42713951  0.75314299    -0.21400
C611        C  0.54085278  0.38406374  0.75155344    -0.07920
C612        C  0.58519092  0.38546597  0.74355727     0.12940
C613        C  0.58826451  0.34016567  0.74026795    -0.24750
H614        H  0.66125879  0.43123859  0.73085588     0.14230
H615        H  0.50587450  0.42596760  0.75943944     0.14260
C616        C  0.57760204  0.51640747  0.75075139    -0.24700
H617        H  0.62521053  0.34786978  0.73090829     0.04470
H618        H  0.56324375  0.31545794  0.70945925     0.07700
H619        H  0.57881061  0.32205171  0.77793328     0.07700
H620        H  0.59191659  0.53697794  0.71495104     0.07680
H621        H  0.59757875  0.53909868  0.78524351     0.07680
H622        H  0.53954787  0.50767230  0.75421816     0.04450
C623        C  0.68115193  0.68757638  0.94780724    -0.21350
C624        C  0.71955586  0.67892249  0.95614598    -0.07920
C625        C  0.73740952  0.68257241  0.00736502     0.12950
C626        C  0.71896148  0.69816243  0.04782155    -0.21400
C627        C  0.68394760  0.71109294  0.03842201    -0.07920
C628        C  0.66356883  0.70421471  0.98836263     0.12940
C629        C  0.62393832  0.71520432  0.97778150    -0.24750
H630        H  0.66682629  0.68426177  0.90887928     0.14230
H631        H  0.73404549  0.70305166  0.08667751     0.14260
C632        C  0.77629659  0.67080895  0.01988466    -0.24700
H633        H  0.61156584  0.70740590  0.93663762     0.04470
H634        H  0.63694907  0.75379341  0.98667183     0.07700
H635        H  0.59263199  0.69284265  0.00243541     0.07700
H636        H  0.81100906  0.69755861  0.00308144     0.07680
H637        H  0.76563892  0.63420007  0.00449072     0.07680
H638        H  0.78248426  0.67156098  0.06232835     0.04450
C639        C  0.71937944  0.73506534  0.54537895    -0.21350
C640        C  0.73671452  0.70291023  0.53729873    -0.07920
C641        C  0.73663803  0.68612127  0.48603898     0.12950
C642        C  0.72005032  0.70236220  0.44500665    -0.21400
C643        C  0.70307210  0.73480610  0.45302402    -0.07920
C644        C  0.70260864  0.75113489  0.50430587     0.12940
C645        C  0.68555820  0.78619421  0.51639785    -0.24750
H646        H  0.71911383  0.74815833  0.58439095     0.14230
H647        H  0.72027652  0.68922762  0.40599975     0.14260
C648        C  0.75326028  0.65069081  0.47371146    -0.24700
H649        H  0.68916958  0.79615161  0.55832602     0.04470
H650        H  0.64692054  0.77002487  0.50526655     0.07700
H651        H  0.70752122  0.81964218  0.49503329     0.07700
H652        H  0.73118298  0.61704760  0.49484638     0.07680
H653        H  0.79190277  0.66660661  0.48464944     0.07680
H654        H  0.74955038  0.64087622  0.43173771     0.04450
loop_ 
_geom_bond_atom_site_label_1 
_geom_bond_atom_site_label_2 
_geom_bond_distance 
_geom_bond_site_symmetry_2 
_ccdc_geom_bond_type 
N1            N2   1.319       .  A
N1            N7   1.314       .  A
N1          Mn30   2.197       .  S
N2            C9   1.353       .  A
N3            N5   1.316       .  A
N3            N4   1.324       .  A
N3          Mn19   2.211       .  S
N4           C10   1.357       .  A
N5            N6   1.318       .  A
N5          Mn30   2.195       .  S
N6           C10   1.350       .  A
N7            N8   1.318       .  A
N7          Mn19   2.188       .  S
N8            C9   1.351       .  A
C9          C560   1.476       .  S
C10         C624   1.487       .  S
N11          N17   1.317       .  A
N11          N12   1.324       .  A
N11         Mn41   2.223       .  S
N12          C20   1.357       .  A
N13          N14   1.319       .  A
N13          N15   1.316       .  A
N13         Mn19   2.199       .  S
N14          C21   1.352       .  A
N15          N16   1.324       .  A
N15         Mn41   2.223       .  S
N16          C21   1.358       .  A
N17          N18   1.317       .  A
N17         Mn19   2.192       .  S
N18          C20   1.350       .  A
Mn19        Cl43   2.546       .  S
C20         C608   1.486       .  S
C21         C640   1.498       .  S
N22          N23   1.318       .  A
N22          N28   1.316       .  A
N22         Mn30   2.198       .  S
N23          C31   1.352       .  A
N24          N26   1.313       .  A
N24          N25   1.318   1_655  A
N24         Mn42   2.188       .  S
N25          C32   1.351       .  A
N26          N27   1.319       .  A
N26         Mn30   2.192       .  S
N27          C32   1.353   1_655  A
N28          N29   1.323       .  A
N28         Mn42   2.206       .  S
N29          C31   1.355       .  A
Mn30        Cl43   2.539       .  S
C31         C528   1.490       .  S
C32         C592   1.479       .  S
N33          N34   1.327       .  A
N33          N39   1.316       .  A
N33         Mn41   2.238       .  S
N34          C44   1.362       .  A
N35          N36   1.320       .  A
N35          N37   1.317       .  A
N35         Mn42   2.201       .  S
N36          C45   1.351       .  A
N37          N38   1.322       .  A
N37         Mn41   2.213       .  S
N38          C45   1.352       .  A
N39          N40   1.317       .  A
N39         Mn42   2.189       .  S
N40          C44   1.348       .  A
Mn41        Cl43   2.554       .  S
Mn42        Cl43   2.546       .  S
C44         C544   1.490       .  S
C45         C576   1.473       .  S
N46          N47   1.313       .  A
N46          N52   1.316       .  A
N46         Mn75   2.178       .  S
N47          C54   1.345       .  A
N48          N50   1.315       .  A
N48          N49   1.321   1_655  A
N48         Mn64   2.202       .  S
N49          C55   1.353       .  A
N50          N51   1.319       .  A
N50         Mn75   2.196       .  S
N51          C55   1.350   1_655  A
N52          N53   1.326       .  A
N52         Mn64   2.215       .  S
N53          C54   1.358       .  A
C54         C448   1.486       .  S
C55         C496   1.467       .  S
N56          N62   1.316       .  A
N56          N57   1.324       .  A
N56         Mn86   2.206       .  S
N57          C65   1.355       .  A
N58          N59   1.323       .  A
N58          N60   1.316       .  A
N58         Mn64   2.214       .  S
N59          C66   1.359       .  A
N60          N61   1.318       .  A
N60         Mn86   2.205       .  S
N61          C66   1.351       .  A
N62          N63   1.315       .  A
N62         Mn64   2.188       .  S
N63          C65   1.346       .  A
Mn64        Cl88   2.559       .  S
C65         C432   1.466       .  S
C66         C579   1.494       .  S
N67          N68   1.316       .  A
N67          N73   1.313       .  A
N67         Mn75   2.181       .  S
N68          C76   1.349       .  A
N69          N71   1.316       .  A
N69          N70   1.323       .  A
N69         Mn87   2.205       .  S
N70          C77   1.354       .  A
N71          N72   1.318       .  A
N71         Mn75   2.192       .  S
N72          C77   1.349       .  A
N73          N74   1.320       .  A
N73         Mn87   2.199       .  S
N74          C76   1.356       .  A
Mn75        Cl88   2.515       .  S
C76         C563   1.480   1_545  S
C77         C483   1.469       .  S
N78          N79   1.314       .  A
N78          N84   1.315       .  A
N78         Mn86   2.188       .  S
N79          C89   1.350       .  A
N80          N81   1.317       .  A
N80          N82   1.316       .  A
N80         Mn87   2.192       .  S
N81          C90   1.350       .  A
N82          N83   1.327       .  A
N82         Mn86   2.233       .  S
N83          C90   1.361       .  A
N84          N85   1.323       .  A
N84         Mn87   2.205       .  S
N85          C89   1.356       .  A
Mn86        Cl88   2.538       .  S
Mn87        Cl88   2.558       .  S
C89         C515   1.477       .  S
C90         C467   1.497       .  S
N91          N92   1.328       .  A
N91          N97   1.315       .  A
N91        Mn120   2.240       .  S
N92          C99   1.363       .  A
N93          N95   1.314       .  A
N93          N94   1.318       .  A
N93        Mn109   2.188       .  S
N94         C100   1.352       .  A
N95          N96   1.320       .  A
N95        Mn120   2.200       .  S
N96         C100   1.353       .  A
N97          N98   1.316       .  A
N97        Mn109   2.184       .  S
N98          C99   1.347       .  A
C99         C547   1.490       .  S
C100        C384   1.480       .  S
N101        N107   1.317       .  A
N101        N102   1.320       .  A
N101       Mn131   2.210       .  S
N102        C110   1.352       .  A
N103        N104   1.319       .  A
N103        N105   1.313       .  A
N103       Mn109   2.180       .  S
N104        C111   1.350       .  A
N105        N106   1.318       .  A
N105       Mn131   2.198       .  S
N106        C111   1.354       .  A
N107        N108   1.321       .  A
N107       Mn109   2.197       .  S
N108        C110   1.351       .  A
Mn109      Cl133   2.546       .  S
C110        C531   1.472       .  S
C111        C419   1.478   1_455  S
N112        N113   1.319       .  A
N112        N118   1.319       .  A
N112       Mn120   2.212       .  S
N113        C121   1.351       .  A
N114        N116   1.316       .  A
N114        N115   1.320       .  A
N114       Mn132   2.204       .  S
N115        C122   1.350       .  A
N116        N117   1.322       .  A
N116       Mn120   2.204       .  S
N117        C122   1.354       .  A
N118        N119   1.322       .  A
N118       Mn132   2.210       .  S
N119        C121   1.354       .  A
Mn120      Cl133   2.549       .  S
C121        C400   1.472       .  S
C122        C355   1.475       .  S
N123        N124   1.322       .  A
N123        N129   1.315       .  A
N123       Mn131   2.210       .  S
N124        C134   1.356   1_565  A
N125        N126   1.327       .  A
N125        N127   1.318       .  A
N125       Mn132   2.224       .  S
N126        C135   1.356       .  A
N127        N128   1.318       .  A
N127       Mn131   2.196       .  S
N128        C135   1.348       .  A
N129        N130   1.318       .  A
N129       Mn132   2.194       .  S
N130        C134   1.351   1_565  A
Mn131      Cl133   2.533       .  S
Mn132      Cl133   2.551       .  S
C134        C368   1.484       .  S
C135        C336   1.488       .  S
N136        N137   1.320       .  A
N136        N142   1.316       .  A
N136       Mn165   2.202       .  S
N137        C144   1.351       .  A
N138        N140   1.316       .  A
N138        N139   1.314       .  A
N138       Mn154   2.181       .  S
N139        C145   1.346       .  A
N140        N141   1.324       .  A
N140       Mn165   2.206       .  S
N141        C145   1.355       .  A
N142        N143   1.320       .  A
N142       Mn154   2.205       .  S
N143        C144   1.355       .  A
C144        C611   1.480       .  S
C145        C320   1.464       .  S
N146        N152   1.314       .  A
N146        N147   1.319       .  A
N146       Mn176   2.193       .  S
N147        C155   1.350       .  A
N148        N149   1.325       .  A
N148        N150   1.315       .  A
N148       Mn154   2.206       .  S
N149        C156   1.356       .  A
N150        N151   1.315       .  A
N150       Mn176   2.186       .  S
N151        C156   1.350       .  A
N152        N153   1.321       .  A
N152       Mn154   2.200       .  S
N153        C155   1.353       .  A
Mn154      Cl178   2.557       .  S
C155        C499   1.467       .  S
C156        C304   1.491       .  S
N157        N158   1.325       .  A
N157        N163   1.318       .  A
N157       Mn165   2.227       .  S
N158        C166   1.357       .  A
N159        N161   1.315       .  A
N159        N160   1.325       .  A
N159       Mn177   2.210       .  S
N160        C167   1.358       .  A
N161        N162   1.312       .  A
N161       Mn165   2.182       .  S
N162        C167   1.346       .  A
N163        N164   1.320       .  A
N163       Mn177   2.203       .  S
N164        C166   1.349       .  A
Mn165      Cl178   2.536       .  S
C166        C339   1.479       .  S
C167        C512   1.479       .  S
N168        N169   1.317       .  A
N168        N174   1.317       .  A
N168       Mn176   2.193       .  S
N169        C179   1.348       .  A
N170        N171   1.321       .  A
N170        N172   1.314       .  A
N170       Mn177   2.205       .  S
N171        C180   1.356       .  A
N172        N173   1.315       .  A
N172       Mn176   2.176       .  S
N173        C180   1.348       .  A
N174        N175   1.324       .  A
N174       Mn177   2.213       .  S
N175        C179   1.354       .  A
Mn176      Cl178   2.517       .  S
Mn177      Cl178   2.564       .  S
C179        C352   1.473       .  S
C180        C595   1.475   1_545  S
N181        N182   1.315       .  A
N181        N187   1.313       .  A
N181       Mn210   2.183       .  S
N182        C189   1.350       .  A
N183        N185   1.313       .  A
N183        N184   1.324       .  A
N183       Mn199   2.203       .  S
N184        C190   1.357       .  A
N185        N186   1.313       .  A
N185       Mn210   2.178       .  S
N186        C190   1.349       .  A
N187        N188   1.321       .  A
N187       Mn199   2.196       .  S
N188        C189   1.355       .  A
C189        C272   1.477   1_455  S
C190        C435   1.486       .  S
N191        N197   1.316       .  A
N191        N192   1.320       .  A
N191       Mn221   2.205       .  S
N192        C200   1.353       .  A
N193        N194   1.316       .  A
N193        N195   1.317       .  A
N193       Mn199   2.190       .  S
N194        C201   1.347       .  A
N195        N196   1.324       .  A
N195       Mn221   2.216       .  S
N196        C201   1.355       .  A
N197        N198   1.317       .  A
N197       Mn199   2.191       .  S
N198        C200   1.353       .  A
Mn199      Cl223   2.556       .  S
C200        C387   1.479       .  S
C201        C451   1.466       .  S
N202        N203   1.312       .  A
N202        N208   1.313       .  A
N202       Mn210   2.177       .  S
N203        C211   1.345       .  A
N204        N206   1.313       .  A
N204        N205   1.321       .  A
N204       Mn222   2.205       .  S
N205        C212   1.357       .  A
N206        N207   1.318       .  A
N206       Mn210   2.187       .  S
N207        C212   1.351       .  A
N208        N209   1.324       .  A
N208       Mn222   2.198       .  S
N209        C211   1.357       .  A
Mn210      Cl223   2.512       .  S
C211        C323   1.485       .  S
C212        C371   1.484       .  S
N213        N214   1.328       .  A
N213        N219   1.316       .  A
N213       Mn221   2.228       .  S
N214        C224   1.361       .  A
N215        N216   1.322       .  A
N215        N217   1.315       .  A
N215       Mn222   2.204       .  S
N216        C225   1.356       .  A
N217        N218   1.315       .  A
N217       Mn221   2.195       .  S
N218        C225   1.352       .  A
N219        N220   1.312       .  A
N219       Mn222   2.179       .  S
N220        C224   1.344       .  A
Mn221      Cl223   2.536       .  S
Mn222      Cl223   2.557       .  S
C224        C307   1.482       .  S
C225        C288   1.489       .  S
N226        N227   1.318       .  A
N226        N232   1.314       .  A
N226       Mn255   2.201       .  S
N227        C234   1.353       .  A
N228        N230   1.318       .  A
N228        N229   1.321       .  A
N228       Mn244   2.200       .  S
N229        C235   1.351       .  A
N230        N231   1.321       .  A
N230       Mn255   2.220       .  S
N231        C235   1.353       .  A
N232        N233   1.321       .  A
N232       Mn244   2.194       .  S
N233        C234   1.353       .  A
C234        C416   1.482       .  S
C235        C627   1.475       .  S
N236        N242   1.314       .  A
N236        N237   1.314       .  A
N236       Mn266   2.184       .  S
N237        C245   1.348       .  A
N238        N239   1.318       .  A
N238        N240   1.315       .  A
N238       Mn244   2.192       .  S
N239        C246   1.351       .  A
N240        N241   1.325       .  A
N240       Mn266   2.226       .  S
N241        C246   1.360       .  A
N242        N243   1.324       .  A
N242       Mn244   2.211       .  S
N243        C245   1.360       .  A
Mn244      Cl268   2.557       .  S
C245        C291   1.490       .  S
C246        C643   1.498       .  S
N247        N248   1.321       .  A
N247        N253   1.319       .  A
N247       Mn255   2.207       .  S
N248        C256   1.351       .  A
N249        N251   1.315       .  A
N249        N250   1.317       .  A
N249       Mn267   2.181       .  S
N250        C257   1.350   1_565  A
N251        N252   1.322       .  A
N251       Mn255   2.220       .  S
N252        C257   1.357   1_565  A
N253        N254   1.324       .  A
N253       Mn267   2.213       .  S
N254        C256   1.353       .  A
Mn255      Cl268   2.533       .  S
C256        C464   1.481       .  S
C257        C275   1.481       .  S
N258        N259   1.322       .  A
N258        N264   1.315       .  A
N258       Mn266   2.200       .  S
N259        C269   1.355       .  A
N260        N261   1.323       .  A
N260        N262   1.317       .  A
N260       Mn267   2.207       .  S
N261        C270   1.354       .  A
N262        N263   1.319       .  A
N262       Mn266   2.207       .  S
N263        C270   1.350       .  A
N264        N265   1.319       .  A
N264       Mn267   2.200       .  S
N265        C269   1.351       .  A
Mn266      Cl268   2.541       .  S
Mn267      Cl268   2.554       .  S
C269        C480   1.482       .  S
C270        C403   1.472       .  S
C271        C272   1.402       .  A
C271        C276   1.399       .  A
C271        H278   1.085       .  S
C272        C273   1.414       .  A
C273        C274   1.404       .  A
C273        C280   1.507       .  S
C274        C275   1.405       .  A
C274        H279   1.084       .  S
C275        C276   1.411       .  A
C276        C277   1.500       .  S
C277        H281   1.111       .  S
C277        H282   1.107   1_545  S
C277        H283   1.110   1_545  S
C280        H284   1.111       .  S
C280        H285   1.110       .  S
C280        H286   1.111       .  S
C287        C288   1.403       .  A
C287        C292   1.398       .  A
C287        H294   1.084       .  S
C288        C289   1.417       .  A
C289        C290   1.408       .  A
C289        C296   1.507       .  S
C290        C291   1.406       .  A
C290        H295   1.084       .  S
C291        C292   1.422       .  A
C292        C293   1.511       .  S
C293        H297   1.111       .  S
C293        H298   1.110       .  S
C293        H299   1.110       .  S
C296        H300   1.111       .  S
C296        H301   1.109       .  S
C296        H302   1.111       .  S
C303        C304   1.404       .  A
C303        C308   1.397       .  A
C303        H310   1.083       .  S
C304        C305   1.420       .  A
C305        C306   1.412       .  A
C305        C312   1.506       .  S
C306        C307   1.404       .  A
C306        H311   1.083       .  S
C307        C308   1.417       .  A
C308        C309   1.512       .  S
C309        H313   1.111       .  S
C309        H314   1.109       .  S
C309        H315   1.111       .  S
C312        H316   1.111       .  S
C312        H317   1.110       .  S
C312        H318   1.111       .  S
C319        C320   1.393       .  A
C319        C324   1.395   1_556  A
C319        H326   1.085       .  S
C320        C321   1.408   1_556  A
C321        C322   1.407       .  A
C321        C328   1.505   1_554  S
C322        C323   1.408       .  A
C322        H327   1.085       .  S
C323        C324   1.425       .  A
C324        C325   1.511       .  S
C325        H329   1.111   1_554  S
C325        H330   1.110       .  S
C325        H331   1.110       .  S
C328        H332   1.111       .  S
C328        H333   1.110   1_556  S
C328        H334   1.111   1_556  S
C335        C336   1.404       .  A
C335        C340   1.411   1_564  A
C335        H342   1.085       .  S
C336        C337   1.421   1_565  A
C337        C338   1.404   1_554  A
C337        C344   1.509       .  S
C338        C339   1.397       .  A
C338        H343   1.084       .  S
C339        C340   1.414       .  A
C340        C341   1.505       .  S
C341        H345   1.111       .  S
C341        H346   1.110       .  S
C341        H347   1.110       .  S
C344        H348   1.110       .  S
C344        H349   1.109   1_545  S
C344        H350   1.111       .  S
C351        C352   1.403   1_565  A
C351        C356   1.402       .  A
C351        H358   1.085       .  S
C352        C353   1.408       .  A
C353        C354   1.407       .  A
C353        C360   1.505       .  S
C354        C355   1.406   1_545  A
C354        H359   1.085       .  S
C355        C356   1.411       .  A
C356        C357   1.507       .  S
C357        H361   1.111       .  S
C357        H362   1.110       .  S
C357        H363   1.111       .  S
C360        H364   1.110       .  S
C360        H365   1.110       .  S
C360        H366   1.111       .  S
C367        C368   1.404       .  A
C367        C372   1.406       .  A
C367        H374   1.084       .  S
C368        C369   1.418       .  A
C369        C370   1.402       .  A
C369        C376   1.508       .  S
C370        C371   1.402       .  A
C370        H375   1.083       .  S
C371        C372   1.418       .  A
C372        C373   1.509       .  S
C373        H377   1.111       .  S
C373        H378   1.109       .  S
C373        H379   1.111       .  S
C376        H380   1.111       .  S
C376        H381   1.109       .  S
C376        H382   1.111       .  S
C383        C384   1.405       .  A
C383        C388   1.405       .  A
C383        H390   1.084       .  S
C384        C385   1.416       .  A
C385        C386   1.399       .  A
C385        C392   1.509       .  S
C386        C387   1.403       .  A
C386        H391   1.083       .  S
C387        C388   1.415       .  A
C388        C389   1.509       .  S
C389        H393   1.111       .  S
C389        H394   1.111       .  S
C389        H395   1.109       .  S
C392        H396   1.110       .  S
C392        H397   1.111       .  S
C392        H398   1.111       .  S
C399        C400   1.400       .  A
C399        C404   1.401       .  A
C399        H406   1.085       .  S
C400        C401   1.411       .  A
C401        C402   1.408       .  A
C401        C408   1.505       .  S
C402        C403   1.403       .  A
C402        H407   1.085       .  S
C403        C404   1.412       .  A
C404        C405   1.508       .  S
C405        H409   1.111       .  S
C405        H410   1.111       .  S
C405        H411   1.110       .  S
C408        H412   1.110       .  S
C408        H413   1.111       .  S
C408        H414   1.111       .  S
C415        C416   1.404       .  A
C415        C420   1.405       .  A
C415        H422   1.083       .  S
C416        C417   1.414       .  A
C417        C418   1.398       .  A
C417        C424   1.501       .  S
C418        C419   1.399       .  A
C418        H423   1.084       .  S
C419        C420   1.417       .  A
C420        C421   1.507       .  S
C421        H425   1.111       .  S
C421        H426   1.110       .  S
C421        H427   1.111       .  S
C424        H428   1.110       .  S
C424        H429   1.108       .  S
C424        H430   1.111       .  S
C431        C432   1.403       .  A
C431        C436   1.410   1_656  A
C431        H438   1.084       .  S
C432        C433   1.405       .  A
C433        C434   1.393   1_656  A
C433        C440   1.509       .  S
C434        C435   1.408       .  A
C434        H439   1.083       .  S
C435        C436   1.418       .  A
C436        C437   1.506       .  S
C437        H441   1.111   1_455  S
C437        H442   1.111       .  S
C437        H443   1.109       .  S
C440        H444   1.109   1_655  S
C440        H445   1.110       .  S
C440        H446   1.111   1_655  S
C447        C448   1.406   1_455  A
C447        C452   1.408       .  A
C447        H454   1.085   1_455  S
C448        C449   1.425       .  A
C449        C450   1.398   1_655  A
C449        C456   1.511       .  S
C450        C451   1.393       .  A
C450        H455   1.085       .  S
C451        C452   1.410       .  A
C452        C453   1.505       .  S
C453        H457   1.111       .  S
C453        H458   1.111       .  S
C453        H459   1.110       .  S
C456        H460   1.110       .  S
C456        H461   1.110       .  S
C456        H462   1.111       .  S
C463        C464   1.405   1_545  A
C463        C468   1.411       .  A
C463        H470   1.085       .  S
C464        C465   1.407   1_554  A
C465        C466   1.404       .  A
C465        C472   1.507       .  S
C466        C467   1.411   1_565  A
C466        H471   1.084       .  S
C467        C468   1.419   1_556  A
C468        C469   1.506       .  S
C469        H473   1.111       .  S
C469        H474   1.109       .  S
C469        H475   1.111       .  S
C472        H476   1.111   1_556  S
C472        H477   1.110       .  S
C472        H478   1.111       .  S
C479        C480   1.408   1_545  A
C479        C484   1.405       .  A
C479        H486   1.085       .  S
C480        C481   1.415       .  A
C481        C482   1.403       .  A
C481        C488   1.506       .  S
C482        C483   1.401   1_565  A
C482        H487   1.085       .  S
C483        C484   1.406       .  A
C484        C485   1.505       .  S
C485        H489   1.111       .  S
C485        H490   1.110       .  S
C485        H491   1.111       .  S
C488        H492   1.111       .  S
C488        H493   1.109       .  S
C488        H494   1.111       .  S
C495        C496   1.399       .  A
C495        C500   1.400       .  A
C495        H502   1.084       .  S
C496        C497   1.411       .  A
C497        C498   1.406       .  A
C497        C504   1.504       .  S
C498        C499   1.402       .  A
C498        H503   1.085       .  S
C499        C500   1.411       .  A
C500        C501   1.508       .  S
C501        H505   1.111       .  S
C501        H506   1.111       .  S
C501        H507   1.110       .  S
C504        H508   1.110   1_455  S
C504        H509   1.108       .  S
C504        H510   1.111       .  S
C511        C512   1.406       .  A
C511        C516   1.409       .  A
C511        H518   1.085       .  S
C512        C513   1.418       .  A
C513        C514   1.393       .  A
C513        C520   1.511       .  S
C514        C515   1.400       .  A
C514        H519   1.085       .  S
C515        C516   1.413       .  A
C516        C517   1.506       .  S
C517        H521   1.111       .  S
C517        H522   1.108       .  S
C517        H523   1.111       .  S
C520        H524   1.110       .  S
C520        H525   1.110       .  S
C520        H526   1.111       .  S
C527        C528   1.406   1_554  A
C527        C532   1.400       .  A
C527        H534   1.084       .  S
C528        C529   1.422   1_655  A
C529        C530   1.409       .  A
C529        C536   1.506       .  S
C530        C531   1.399   1_556  A
C530        H535   1.084       .  S
C531        C532   1.410   1_455  A
C532        C533   1.510       .  S
C533        H537   1.111       .  S
C533        H538   1.111       .  S
C533        H539   1.110       .  S
C536        H540   1.110       .  S
C536        H541   1.110       .  S
C536        H542   1.111       .  S
C543        C544   1.401       .  A
C543        C548   1.407       .  A
C543        H550   1.084       .  S
C544        C545   1.421   1_655  A
C545        C546   1.410       .  A
C545        C552   1.508       .  S
C546        C547   1.402       .  A
C546        H551   1.083       .  S
C547        C548   1.421   1_455  A
C548        C549   1.509       .  S
C549        H553   1.111       .  S
C549        H554   1.111   1_655  S
C549        H555   1.109       .  S
C552        H556   1.109       .  S
C552        H557   1.111       .  S
C552        H558   1.111       .  S
C559        C560   1.401       .  A
C559        C564   1.402       .  A
C559        H566   1.085       .  S
C560        C561   1.415       .  A
C561        C562   1.401       .  A
C561        C568   1.508       .  S
C562        C563   1.403       .  A
C562        H567   1.084       .  S
C563        C564   1.418       .  A
C564        C565   1.509   1_565  S
C565        H569   1.111   1_545  S
C565        H570   1.110       .  S
C565        H571   1.109       .  S
C568        H572   1.111       .  S
C568        H573   1.109       .  S
C568        H574   1.111       .  S
C575        C576   1.397       .  A
C575        C580   1.406       .  A
C575        H582   1.085       .  S
C576        C577   1.409       .  A
C577        C578   1.404       .  A
C577        C584   1.507       .  S
C578        C579   1.407       .  A
C578        H583   1.084       .  S
C579        C580   1.425       .  A
C580        C581   1.508       .  S
C581        H585   1.111       .  S
C581        H586   1.110       .  S
C581        H587   1.110       .  S
C584        H588   1.110       .  S
C584        H589   1.111       .  S
C584        H590   1.111       .  S
C591        C592   1.403       .  A
C591        C596   1.401       .  A
C591        H598   1.085       .  S
C592        C593   1.418       .  A
C593        C594   1.401       .  A
C593        C600   1.508       .  S
C594        C595   1.401       .  A
C594        H599   1.084       .  S
C595        C596   1.415       .  A
C596        C597   1.509   1_565  S
C597        H601   1.111   1_545  S
C597        H602   1.109       .  S
C597        H603   1.110       .  S
C600        H604   1.110       .  S
C600        H605   1.110       .  S
C600        H606   1.111       .  S
C607        C608   1.405       .  A
C607        C612   1.407       .  A
C607        H614   1.084       .  S
C608        C609   1.420       .  A
C609        C610   1.401       .  A
C609        C616   1.509       .  S
C610        C611   1.400       .  A
C610        H615   1.084       .  S
C611        C612   1.416       .  A
C612        C613   1.508       .  S
C613        H617   1.111       .  S
C613        H618   1.110       .  S
C613        H619   1.109       .  S
C616        H620   1.110       .  S
C616        H621   1.110       .  S
C616        H622   1.111       .  S
C623        C624   1.408       .  A
C623        C628   1.407       .  A
C623        H630   1.084       .  S
C624        C625   1.418   1_556  A
C625        C626   1.403       .  A
C625        C632   1.509       .  S
C626        C627   1.401       .  A
C626        H631   1.086       .  S
C627        C628   1.408   1_554  A
C628        C629   1.505       .  S
C629        H633   1.111       .  S
C629        H634   1.110       .  S
C629        H635   1.111   1_556  S
C632        H636   1.109       .  S
C632        H637   1.110       .  S
C632        H638   1.111       .  S
C639        C640   1.409       .  A
C639        C644   1.408       .  A
C639        H646   1.084       .  S
C640        C641   1.417       .  A
C641        C642   1.407       .  A
C641        C648   1.508       .  S
C642        C643   1.409       .  A
C642        H647   1.084       .  S
C643        C644   1.416       .  A
C644        C645   1.506       .  S
C645        H649   1.111       .  S
C645        H650   1.110       .  S
C645        H651   1.109       .  S
C648        H652   1.110       .  S
C648        H653   1.110       .  S
C648        H654   1.111       .  S
