geometry optimzed in LAMMPS
_audit_creation_date              2020-11-30 
_audit_creation_method            'lammps2cif' 
_symmetry_space_group_name_H-M    'P1' 
_symmetry_Int_Tables_number       1 
_symmetry_cell_setting            triclinic 
loop_ 
_symmetry_equiv_pos_as_xyz 
  x,y,z 
_cell_length_a                    23.650586330953356 
_cell_length_b                    23.741889215476775 
_cell_length_c                    37.79393170037819 
_cell_angle_alpha                 90.16881217578563 
_cell_angle_beta                  90.13574498035582 
_cell_angle_gamma                 90.924076715419 
loop_ 
_atom_site_label 
_atom_site_type_symbol 
_atom_site_fract_x 
_atom_site_fract_y 
_atom_site_fract_z 
_atom_site_charge 
C1          C  0.77456880  0.78304527  0.37429826     0.04060
C2          C  0.73992872  0.74786316  0.35412885     0.04060
C3          C  0.76932573  0.24086308  0.38852954     0.04060
C4          C  0.73917897  0.27572816  0.36621983     0.04060
C5          C  0.22853501  0.23705674  0.38727174     0.04060
C6          C  0.26209539  0.26810731  0.36376598     0.04060
C7          C  0.27711225  0.73006673  0.36773698     0.04060
C8          C  0.24260111  0.76285009  0.38887148     0.04060
C9          C  0.27189117  0.73254420  0.13222127     0.04060
C10         C  0.23963678  0.76442453  0.10915327     0.04060
C11         C  0.73358650  0.72844921  0.13265240     0.04060
C12         C  0.76744305  0.76267101  0.11153127     0.04060
C13         C  0.74080255  0.25702872  0.14470868     0.04060
C14         C  0.77020049  0.22287547  0.12102752     0.04060
Fe15       Fe  0.56719716  0.84515143  0.23322759     1.65780
Fe16       Fe  0.43095976  0.84168288  0.25640283     1.73250
Fe17       Fe  0.50126824  0.72372962  0.24696573     1.54420
O18         O  0.56767761  0.71995967  0.20747274    -0.78180
O19         O  0.43024197  0.80797939  0.30509692    -0.76490
O20         O  0.57157010  0.80655471  0.18565404    -0.80690
O21         O  0.62024507  0.78803265  0.25783555    -0.75540
O22         O  0.44092130  0.72387846  0.20568047    -0.77320
O23         O  0.47606081  0.90728060  0.27801622    -0.80060
C24         C  0.60828682  0.76010356  0.28560946     1.00700
C25         C  0.58631449  0.75600235  0.18460851     1.08140
O26         O  0.49972173  0.80347900  0.24506743    -1.09040
O27         O  0.42934380  0.87742640  0.20914547    -0.71480
O28         O  0.51970236  0.90628476  0.20926615    -0.74960
O29         O  0.56213886  0.73120634  0.28779802    -0.75650
C30         C  0.46934362  0.90637700  0.19699756     0.99610
O31         O  0.56572796  0.88205899  0.28038075    -0.73610
O32         O  0.38057355  0.77882811  0.23379128    -0.78800
C33         C  0.41742842  0.75715443  0.30899769     1.02230
C34         C  0.39464873  0.75124663  0.20636319     1.08150
O35         O  0.43530864  0.71956999  0.28712252    -0.74450
C36         C  0.52275003  0.90247121  0.29427250     1.06450
Fe37       Fe  0.64728764  0.06937705  0.50315957     1.65780
Fe38       Fe  0.64740876  0.93014789  0.49117041     1.73250
Fe39       Fe  0.76959573  0.00233011  0.49829943     1.54420
O40         O  0.76923945  0.07569380  0.46411846    -0.78180
O41         O  0.68288679  0.89122577  0.03441544    -0.76490
O42         O  0.67862569  0.10202160  0.45788852    -0.80690
O43         O  0.70363370  0.11189159  0.03142472    -0.75540
O44         O  0.77394796  0.95275498  0.45105089    -0.77320
O45         O  0.58445295  0.95350554  0.02355582    -0.80060
C46         C  0.74031165  0.09493193  0.05268527     1.00700
C47         C  0.73011323  0.10495988  0.44899768     1.08140
O48         O  0.68941582  0.00039679  0.49691537    -1.09040
O49         O  0.61184587  0.96393048  0.44824601    -0.71480
O50         O  0.57923372  0.03949559  0.47551683    -0.74960
O51         O  0.76836090  0.05049277  0.04588620    -0.75650
C52         C  0.57873468  0.00493983  0.45021088     0.99610
O53         O  0.61785414  0.03209401  0.04833807    -0.73610
O54         O  0.70276551  0.89181215  0.45860559    -0.78800
C55         C  0.73282712  0.89408367  0.04620533     1.02230
C56         C  0.74460663  0.90951246  0.44128072     1.08150
O57         O  0.77076926  0.92829257  0.03365941    -0.74450
C58         C  0.59134291  0.98546606  0.04984087     1.06450
Fe59       Fe  0.34019277  0.09099878  0.49936770     1.65780
Fe60       Fe  0.36093844  0.95195738  0.49725680     1.73250
Fe61       Fe  0.23004283  0.00161520  0.50058774     1.54410
O62         O  0.22530558  0.06985868  0.03958359    -0.78180
O63         O  0.32406040  0.91460902  0.45447539    -0.76490
O64         O  0.31430320  0.10207946  0.04843067    -0.80690
O65         O  0.26827679  0.12668155  0.48029069    -0.75540
O66         O  0.23537774  0.94373123  0.04379692    -0.77320
O67         O  0.40912187  0.99853229  0.46251029    -0.80060
C68         C  0.24312949  0.10615775  0.45386626     1.00700
C69         C  0.26279283  0.09968358  0.05709028     1.08140
O70         O  0.30944467  0.01257279  0.99955127    -1.09040
O71         O  0.39865709  0.98404590  0.03994731    -0.71480
O72         O  0.41783764  0.06744414  0.01760103    -0.74960
O73         O  0.22345394  0.05580757  0.45549463    -0.75650
C74         C  0.42143716  0.03222597  0.04223293     0.99610
O75         O  0.36438657  0.07754802  0.44933686    -0.73610
O76         O  0.31621012  0.89973430  0.03217640    -0.78800
C77         C  0.27252075  0.90581889  0.44751731     1.02230
C78         C  0.27116894  0.90476471  0.04998355     1.08150
O79         O  0.23262946  0.93218044  0.46352675    -0.74450
C80         C  0.39143160  0.03462677  0.44031093     1.06450
Fe81       Fe  0.56833121  0.15508324  0.26732214     1.65780
Fe82       Fe  0.43079395  0.15343471  0.24347706     1.73250
Fe83       Fe  0.50050021  0.27423253  0.25382237     1.54420
O84         O  0.56946133  0.28135662  0.29155260    -0.78180
O85         O  0.42467185  0.19158554  0.19598613    -0.76490
O86         O  0.57373583  0.19597521  0.31415393    -0.80690
O87         O  0.61975385  0.21299430  0.24035341    -0.75540
O88         O  0.44065522  0.27186369  0.29581754    -0.77320
O89         O  0.47436922  0.09246195  0.21757016    -0.80060
C90         C  0.60688931  0.24181095  0.21316273     1.00700
C91         C  0.58947425  0.24658011  0.31425006     1.08140
O92         O  0.49975780  0.19377187  0.25504238    -1.09040
O93         O  0.43227807  0.11138750  0.28872583    -0.71480
O94         O  0.52423084  0.09256619  0.29324017    -0.74960
O95         O  0.56027052  0.26906221  0.21184579    -0.75650
C96         C  0.47269184  0.08495333  0.30167230     0.99610
O97         O  0.56677861  0.11265726  0.22205872    -0.73610
O98         O  0.38033603  0.21094388  0.27008490    -0.78800
C99         C  0.41036207  0.24193008  0.19434111     1.02230
C100        C  0.39380802  0.24339322  0.29578015     1.08150
O101        O  0.43146617  0.27857008  0.21598649    -0.74450
C102        C  0.52532739  0.08891301  0.20736787     1.06450
C103        C  0.50058057  0.00687328  0.12572287     0.01010
C104        C  0.48116020  0.97701568  0.37368302     0.01010
Fe105      Fe  0.87249828  0.44539761  0.24797294     1.65780
Fe106      Fe  0.85939571  0.58536104  0.25153088     1.73250
Fe107      Fe  0.74430029  0.50160342  0.25034169     1.54410
O108        O  0.74420240  0.42985237  0.21510048    -0.78180
O109        O  0.82669292  0.59811178  0.29993268    -0.76490
O110        O  0.83464056  0.41126618  0.20407087    -0.80690
O111        O  0.82344782  0.39643308  0.28153719    -0.75540
O112        O  0.74092692  0.55418048  0.20503938    -0.77320
O113        O  0.93302869  0.56072575  0.27597796    -0.80060
C114        C  0.78041298  0.40576046  0.30052143     1.00700
C115        C  0.78260286  0.40245618  0.19846883     1.08140
O116        O  0.82481819  0.50996346  0.24997530    -1.09040
O117        O  0.89107830  0.57280590  0.20288767    -0.71480
O118        O  0.92646478  0.48831058  0.21454142    -0.74960
O119        O  0.74741457  0.44713463  0.29467820    -0.75650
C120        C  0.91983601  0.53076241  0.19440074     0.99610
O121        O  0.91163285  0.47374025  0.29197363    -0.73610
O122        O  0.79207920  0.62390092  0.22773557    -0.78800
C123        C  0.77423778  0.60139588  0.30486987     1.02230
C124        C  0.76295826  0.60353666  0.20266958     1.08150
O125        O  0.73779226  0.57269447  0.28629573    -0.74450
C126        C  0.93788186  0.51969052  0.29685259     1.06450
Fe127      Fe  0.91970798  0.64507878  0.99642339     1.65780
Fe128      Fe  0.05333936  0.64093612  0.49865471     1.73250
Fe129      Fe  0.00348344  0.77092340  0.49461613     1.54420
O130        O  0.93613001  0.77895865  0.45552863    -0.78180
O131        O  0.11082939  0.68346343  0.02682386    -0.76490
O132        O  0.90763639  0.69104113  0.44146173    -0.80690
O133        O  0.90303166  0.67787416  0.04448287    -0.75540
O134        O  0.06220231  0.76589858  0.45235858    -0.77320
O135        O  0.03316836  0.59574435  0.03825046    -0.80060
C136        C  0.90445202  0.72937341  0.05266198     1.00700
C137        C  0.90832552  0.74332436  0.43568672     1.08140
O138        O  0.99147469  0.69139201  0.49406973    -1.09040
O139        O  0.02462585  0.60221531  0.45473361    -0.71480
O140        O  0.93617647  0.58427102  0.46976320    -0.74960
O141        O  0.93419236  0.76630691  0.03538752    -0.75650
C142        C  0.97822011  0.57649533  0.44999975     0.99610
O143        O  0.94598772  0.57345129  0.02161901    -0.73610
O144        O  0.10658386  0.68592262  0.46557661    -0.78800
C145        C  0.10283625  0.72662638  0.04576382     1.02230
C146        C  0.10175147  0.73028540  0.44722516     1.08150
O147        O  0.06048634  0.75887201  0.04088207    -0.74450
C148        C  0.98671242  0.57018917  0.04307885     1.06450
Fe149      Fe  0.91253176  0.34273378  0.50739243     1.65780
Fe150      Fe  0.05691423  0.35559388  0.00758885     1.73250
Fe151      Fe  0.99933365  0.22690603  0.00174541     1.54410
O152        O  0.94389699  0.22006621  0.04621789    -0.78180
O153        O  0.08756178  0.32626747  0.45892357    -0.76490
O154        O  0.87481649  0.26913580  0.02372770    -0.80690
O155        O  0.87532425  0.27134418  0.48669095    -0.75540
O156        O  0.06748303  0.22862676  0.03976617    -0.77320
O157        O  0.00652451  0.41143946  0.46794399    -0.80060
C158        C  0.89528761  0.24906699  0.45929299     1.00700
C159        C  0.89495950  0.24172046  0.04905727     1.08140
O160        O  0.99143770  0.30584793  0.00373610    -1.09040
O161        O  0.00989760  0.40780032  0.03817514    -0.71480
O162        O  0.93084841  0.36341734  0.05337336    -0.74960
O163        O  0.94459393  0.22844382  0.46045377    -0.75650
C164        C  0.97542431  0.39006333  0.06147123     0.99610
O165        O  0.92314912  0.36948986  0.45771054    -0.73610
O166        O  0.08532081  0.31939546  0.05262505    -0.78800
C167        C  0.09424618  0.27503230  0.45142628     1.02230
C168        C  0.09221842  0.26760595  0.05833476     1.08150
O169        O  0.06751811  0.23537851  0.46790247    -0.74450
C170        C  0.96708329  0.39465565  0.44714408     1.06450
Fe171      Fe  0.16633861  0.58904597  0.25114402     1.65780
Fe172      Fe  0.14509331  0.44913631  0.25708788     1.73250
Fe173      Fe  0.27562643  0.50244399  0.24994759     1.54420
O174        O  0.28124540  0.56948632  0.21023445    -0.78180
O175        O  0.18243941  0.41920984  0.30132342    -0.76490
O176        O  0.19265750  0.59891645  0.20118574    -0.80690
O177        O  0.23868088  0.62672891  0.26957515    -0.75540
O178        O  0.26676817  0.44453651  0.20761757    -0.77320
O179        O  0.09635375  0.49798768  0.28920209    -0.80060
C180        C  0.26293653  0.60656816  0.29614986     1.00700
C181        C  0.24377819  0.59695459  0.19218019     1.08140
O182        O  0.19647088  0.51248817  0.25213742    -1.09040
O183        O  0.10863267  0.47563670  0.21268940    -0.71480
O184        O  0.09106469  0.56087187  0.23165195    -0.74960
O185        O  0.28357746  0.55738416  0.29432185    -0.75650
C186        C  0.09290360  0.52519445  0.20702436     0.99610
O187        O  0.14249626  0.57765483  0.30156807    -0.73610
O188        O  0.19010996  0.39552648  0.22482738    -0.78800
C189        C  0.23416736  0.40999866  0.30630421     1.02230
C190        C  0.23178615  0.40304217  0.20416554     1.08150
O191        O  0.27346106  0.43416938  0.28779713    -0.74450
C192        C  0.11583726  0.53411277  0.31121275     1.06450
C193        C  0.02635510  0.48944559  0.12544732     0.01010
C194        C  0.02613723  0.47645099  0.37705860     0.01010
C195        C  0.22877430  0.23363304  0.11960048     0.04060
C196        C  0.26241088  0.26803874  0.14100178     0.04060
C197        C  0.10225021  0.52848848  0.34798266    -0.12940
C198        C  0.08269393  0.47866911  0.35954035    -0.28110
H199        H  0.09402060  0.56771241  0.36167547     0.16080
H200        H  0.09344243  0.44103973  0.34461980     0.16660
C201        C  0.07769341  0.54056448  0.17143224    -0.12940
C202        C  0.07815191  0.49945936  0.14709212    -0.28110
H203        H  0.05216538  0.57774114  0.16801541     0.16080
H204        H  0.10759250  0.46487880  0.14966276     0.16660
C205        C  0.24357091  0.32066653  0.15680283    -0.09780
C206        C  0.23871827  0.36118932  0.17636121    -0.11340
C207        C  0.98381274  0.40583793  0.09770937    -0.12940
C208        C  0.03107756  0.43426725  0.10654858    -0.28110
H209        H  0.94575457  0.40671301  0.11366288     0.16080
H210        H  0.06847171  0.42997832  0.09004986     0.16660
C211        C  0.97013956  0.40870702  0.41031664    -0.12940
C212        C  0.02053748  0.42228308  0.39662875    -0.28110
H213        H  0.93077823  0.42057836  0.39777831     0.16080
H214        H  0.05838967  0.40838982  0.41031351     0.16660
C215        C  0.17434297  0.24997362  0.10493494    -0.09780
C216        C  0.13339039  0.25486300  0.08563793    -0.11340
C217        C  0.98102345  0.53452777  0.07388830    -0.12940
C218        C  0.02241348  0.53460957  0.09808211    -0.28110
H219        H  0.94478604  0.50614731  0.07588881     0.16080
H220        H  0.05702431  0.56524456  0.09636955     0.16660
C221        C  0.02204108  0.52252750  0.40426696    -0.12940
C222        C  0.97435964  0.53630368  0.42098228    -0.28110
H223        H  0.06190089  0.54068713  0.41350373     0.16080
H224        H  0.93379065  0.51755089  0.41388283     0.16660
C225        C  0.97535990  0.52449820  0.32738132    -0.12940
C226        C  0.98224150  0.47948852  0.34819273    -0.28110
H227        H  0.99805962  0.56378821  0.33229503     0.16080
H228        H  0.95849976  0.44101394  0.34231867     0.16660
C229        C  0.97739547  0.48707945  0.15077372    -0.12940
C230        C  0.94933899  0.53249270  0.16096808    -0.28110
H231        H  0.97454461  0.44886377  0.16657807     0.16080
H232        H  0.95290323  0.57213543  0.14684795     0.16660
C233        C  0.45800607  0.04217415  0.32644350    -0.12940
C234        C  0.49379088  0.02862168  0.35188885    -0.28110
H235        H  0.41743604  0.02042988  0.32362399     0.16080
H236        H  0.53337038  0.05207213  0.35537671     0.16660
C237        C  0.53681650  0.05595246  0.17700736    -0.12940
C238        C  0.49872342  0.05417170  0.15113593    -0.28110
H239        H  0.57414882  0.02982286  0.17676865     0.16080
H240        H  0.46277197  0.08229623  0.15112968     0.16660
C241        C  0.36373885  0.25343168  0.17019484    -0.09780
C242        C  0.31937820  0.25498472  0.15355973    -0.11340
C243        C  0.45320436  0.04622958  0.07371943    -0.12940
C244        C  0.45202510  0.00966788  0.10056728    -0.28110
H245        H  0.48320160  0.08133485  0.07315803     0.16080
H246        H  0.42109501  0.97521638  0.10079225     0.16660
C247        C  0.42546690  0.97985870  0.39223016    -0.12940
C248        C  0.40768892  0.02968789  0.40395187    -0.28110
H249        H  0.41264500  0.94186920  0.40635825     0.16080
H250        H  0.41760879  0.06895056  0.39057013     0.16660
C251        C  0.24496688  0.17923132  0.10490344    -0.09780
C252        C  0.24851419  0.13808339  0.08563602    -0.11340
C253        C  0.55455837  0.00915048  0.10578990    -0.12940
C254        C  0.56205981  0.97027416  0.08113842    -0.28110
H255        H  0.58107411  0.04702808  0.10708365     0.16080
H256        H  0.53528173  0.93260263  0.08006298     0.16660
C257        C  0.53692728  0.01184895  0.42351742    -0.12940
C258        C  0.52562666  0.97011487  0.40100053    -0.28110
H259        H  0.51440151  0.05129145  0.42260506     0.16080
H260        H  0.54846641  0.93071656  0.40244327     0.16660
C261        C  0.52835237  0.92294077  0.32943986    -0.12940
C262        C  0.48209592  0.92838865  0.34912821    -0.28110
H263        H  0.56843829  0.94279404  0.33687291     0.16080
H264        H  0.44265394  0.90693450  0.34207682     0.16660
C265        C  0.45691305  0.94290477  0.16829802    -0.12940
C266        C  0.49826801  0.95296030  0.14565117    -0.28110
H267        H  0.41844136  0.96729170  0.16859803     0.16080
H268        H  0.53526011  0.92605314  0.14565701     0.16660
C269        C  0.76103793  0.31260277  0.15713122    -0.09780
C270        C  0.76860187  0.35636062  0.17390211    -0.11340
C271        C  0.68741146  0.24213744  0.16276590    -0.09780
C272        C  0.64781414  0.24264056  0.18379508    -0.11340
C273        C  0.86080979  0.23844148  0.08119364    -0.09780
C274        C  0.82326069  0.23862100  0.10340894    -0.11340
C275        C  0.74841457  0.12969730  0.08457933    -0.09630
C276        C  0.75099100  0.16856207  0.10609096    -0.11340
C277        C  0.67602829  0.74138407  0.14363891    -0.09780
C278        C  0.63175532  0.74374240  0.16003426    -0.11340
C279        C  0.75591639  0.63919934  0.17173458    -0.09780
C280        C  0.75230998  0.67737370  0.15035113    -0.11340
C281        C  0.74490772  0.85420302  0.07428805    -0.09780
C282        C  0.74928152  0.81446761  0.09445052    -0.11340
C283        C  0.82397606  0.74848794  0.09938024    -0.09780
C284        C  0.86575949  0.74433276  0.08080671    -0.11340
C285        C  0.25860225  0.67513814  0.14361861    -0.09780
C286        C  0.25730329  0.63367365  0.16262545    -0.11340
C287        C  0.32101380  0.75265006  0.15240318    -0.09780
C288        C  0.35703676  0.75270887  0.17564593    -0.11340
C289        C  0.18687080  0.74461346  0.09229635    -0.09780
C290        C  0.14545885  0.73801551  0.07313614    -0.11340
C291        C  0.25617650  0.82039228  0.09594636    -0.09780
C292        C  0.26141820  0.86240236  0.07747095    -0.11340
C293        C  0.37535975  0.74632970  0.33623348    -0.09780
C294        C  0.33333871  0.74570664  0.35493270    -0.11340
C295        C  0.26240695  0.63986962  0.32853267    -0.09780
C296        C  0.26058977  0.67709746  0.35077684    -0.11340
C297        C  0.25826960  0.81807081  0.40376404    -0.09780
C298        C  0.26137922  0.86090841  0.42178979    -0.11340
C299        C  0.14491515  0.73937842  0.42028327    -0.09780
C300        C  0.18728807  0.74457306  0.40214876    -0.11340
C301        C  0.24583039  0.36665729  0.33246816    -0.09780
C302        C  0.24839817  0.32421122  0.35057423    -0.11340
C303        C  0.31371771  0.24887046  0.34609172    -0.09780
C304        C  0.35311875  0.24689490  0.32504465    -0.11340
C305        C  0.17682852  0.25757528  0.40420216    -0.09780
C306        C  0.13654637  0.26351510  0.42414692    -0.11340
C307        C  0.24154230  0.18134557  0.40162460    -0.09780
C308        C  0.24045222  0.14161620  0.42225694    -0.11340
C309        C  0.68166209  0.26352720  0.35360802    -0.09780
C310        C  0.63689805  0.26039707  0.33751125    -0.11340
C311        C  0.76968216  0.36598278  0.32921168    -0.09780
C312        C  0.76192371  0.32681335  0.34960124    -0.11340
C313        C  0.74819331  0.18771026  0.40297637    -0.09780
C314        C  0.74268026  0.14656466  0.42192171    -0.11340
C315        C  0.82408701  0.25401099  0.40475262    -0.09780
C316        C  0.86153431  0.25104261  0.42694815    -0.11340
C317        C  0.75824638  0.64531003  0.32934243    -0.09780
C318        C  0.75395809  0.69024261  0.34456760    -0.11340
C319        C  0.64896928  0.76236694  0.31476785    -0.09780
C320        C  0.68794345  0.76392383  0.33605377    -0.11340
C321        C  0.86973741  0.76051745  0.40815171    -0.09780
C322        C  0.82853243  0.76629300  0.38927927    -0.11340
C323        C  0.75922539  0.83786108  0.38856883    -0.09780
C324        C  0.75660767  0.87662871  0.40974022    -0.11340
C325        C  0.77719175  0.77519323  0.87651216     0.04060
C326        C  0.74554686  0.74267230  0.85271270     0.04060
C327        C  0.76650897  0.23384330  0.88514743     0.04060
C328        C  0.73367808  0.27091771  0.86610952     0.04060
C329        C  0.23077445  0.23685516  0.88827535     0.04060
C330        C  0.26533143  0.26779472  0.86544255     0.04060
C331        C  0.27269472  0.73219146  0.86401628     0.04060
C332        C  0.23968151  0.76445075  0.88646432     0.04060
C333        C  0.27037160  0.73287461  0.63336526     0.04060
C334        C  0.23896296  0.76523929  0.60988737     0.04060
C335        C  0.73520224  0.72564766  0.62868024     0.04060
C336        C  0.76739373  0.76093997  0.60699357     0.04060
C337        C  0.73724566  0.25202514  0.64721029     0.04060
C338        C  0.76970589  0.21911887  0.62482994     0.04060
Fe339      Fe  0.56997823  0.84342642  0.73353229     1.65780
Fe340      Fe  0.43305574  0.83963639  0.75589524     1.73250
Fe341      Fe  0.50362964  0.72189891  0.74663398     1.54420
O342        O  0.57070012  0.71816139  0.70730418    -0.78180
O343        O  0.43146214  0.80593114  0.80463384    -0.76490
O344        O  0.57615816  0.80502220  0.68593387    -0.80690
O345        O  0.62305988  0.78668240  0.75851412    -0.75540
O346        O  0.44330942  0.72230466  0.70501573    -0.77320
O347        O  0.47776880  0.90532677  0.77758897    -0.80060
C348        C  0.61117308  0.75763466  0.78584999     1.00700
C349        C  0.59031992  0.75427338  0.68473439     1.08140
O350        O  0.50220592  0.80156510  0.74486692    -1.09040
O351        O  0.43221928  0.87506752  0.70858053    -0.71480
O352        O  0.52254016  0.90416241  0.70903913    -0.74960
O353        O  0.56470842  0.72897672  0.78774654    -0.75650
C354        C  0.47236326  0.90382189  0.69644319     0.99610
O355        O  0.56728668  0.88018501  0.78076958    -0.73610
O356        O  0.38270238  0.77688853  0.73314555    -0.78800
C357        C  0.41773881  0.75524114  0.80812159     1.02230
C358        C  0.39675438  0.74933895  0.70571660     1.08150
O359        O  0.43661616  0.71768974  0.78648716    -0.74450
C360        C  0.52385644  0.90009751  0.79440066     1.06450
Fe361      Fe  0.64564534  0.06609474  0.00302046     1.65780
Fe362      Fe  0.64648409  0.92666403  0.99147136     1.73250
Fe363      Fe  0.76861282  0.99974625  0.99857509     1.54420
O364        O  0.76755668  0.07170835  0.96337650    -0.78180
O365        O  0.68246400  0.89490827  0.53450878    -0.76490
O366        O  0.67685381  0.09823843  0.95754975    -0.80690
O367        O  0.70605081  0.11377197  0.53185922    -0.75540
O368        O  0.77436939  0.94770156  0.95210028    -0.77320
O369        O  0.58489291  0.95780790  0.52247826    -0.80060
C370        C  0.74197805  0.09546730  0.55321180     1.00700
C371        C  0.72822456  0.10072078  0.94828861     1.08140
O372        O  0.68825693  0.99721088  0.99703856    -1.09040
O373        O  0.60954454  0.96005619  0.94882380    -0.71480
O374        O  0.57728212  0.03580675  0.97588010    -0.74960
O375        O  0.76957609  0.05094689  0.54614183    -0.75650
C376        C  0.57641151  0.00101909  0.95074623     0.99610
O377        O  0.61927156  0.03487993  0.54831882    -0.73610
O378        O  0.70096750  0.88890836  0.95813090    -0.78800
C379        C  0.73281695  0.89621957  0.54558017     1.02230
C380        C  0.74464944  0.90478408  0.94196716     1.08150
O381        O  0.77128045  0.92938565  0.53246728    -0.74450
C382        C  0.59303006  0.98808164  0.54937752     1.06450
Fe383      Fe  0.34049187  0.08979869  0.99853860     1.65780
Fe384      Fe  0.36048377  0.95057183  0.99727262     1.73250
Fe385      Fe  0.22989129  0.00116188  0.00073816     1.54410
O386        O  0.22411226  0.07024966  0.53917377    -0.78180
O387        O  0.32304726  0.91270602  0.95484978    -0.76490
O388        O  0.31284209  0.10218510  0.54909686    -0.80690
O389        O  0.26841902  0.12573532  0.98005073    -0.75540
O390        O  0.23573367  0.94398145  0.54369314    -0.77320
O391        O  0.40833310  0.99647632  0.96208244    -0.80060
C392        C  0.24297574  0.10520376  0.95376578     1.00700
C393        C  0.26103326  0.10013050  0.55701282     1.08140
O394        O  0.30958711  0.01361216  0.49969085    -1.09040
O395        O  0.39865811  0.98482296  0.54022414    -0.71480
O396        O  0.41744061  0.06912889  0.51899909    -0.74960
O397        O  0.22304297  0.05503268  0.95559339    -0.75650
C398        C  0.42171152  0.03280680  0.54295818     0.99610
O399        O  0.36335732  0.07505401  0.94836063    -0.73610
O400        O  0.31661978  0.90028021  0.53178494    -0.78800
C401        C  0.27147216  0.90477910  0.94761207     1.02230
C402        C  0.27164243  0.90498437  0.54971890     1.08150
O403        O  0.23178864  0.93170416  0.96351309    -0.74450
C404        C  0.38984302  0.03163512  0.93955917     1.06450
Fe405      Fe  0.56590235  0.15206956  0.76824311     1.65780
Fe406      Fe  0.42928302  0.14913723  0.74343278     1.73250
Fe407      Fe  0.49792631  0.27053194  0.75373335     1.54420
O408        O  0.56594068  0.27797957  0.79189386    -0.78180
O409        O  0.42362520  0.18706122  0.69586846    -0.76490
O410        O  0.56827469  0.19290268  0.81506806    -0.80690
O411        O  0.61685937  0.21099912  0.74200356    -0.75540
O412        O  0.43835311  0.26832608  0.79528241    -0.77320
O413        O  0.47407953  0.08860177  0.71782358    -0.80060
C414        C  0.60377685  0.23768701  0.71402363     1.00700
C415        C  0.58434598  0.24336208  0.81518827     1.08140
O416        O  0.49747285  0.19005179  0.75525831    -1.09040
O417        O  0.43042156  0.10721305  0.78879480    -0.71480
O418        O  0.52234275  0.08863931  0.79341952    -0.74960
O419        O  0.55736493  0.26489261  0.71208158    -0.75650
C420        C  0.47084706  0.08077621  0.80173769     0.99610
O421        O  0.56622819  0.11001133  0.72293219    -0.73610
O422        O  0.37848932  0.20660864  0.76976868    -0.78800
C423        C  0.40960163  0.23744671  0.69381719     1.02230
C424        C  0.39198842  0.23933556  0.79534057     1.08150
O425        O  0.42975518  0.27430501  0.71559661    -0.74450
C426        C  0.52529306  0.08591753  0.70789266     1.06450
C427        C  0.50325499  0.00498445  0.62559704     0.01010
C428        C  0.47947155  0.97289280  0.87376735     0.01010
Fe429      Fe  0.86154406  0.42928587  0.75453353     1.65780
Fe430      Fe  0.86386683  0.56834176  0.74087954     1.73250
Fe431      Fe  0.74125652  0.49910238  0.74842102     1.54410
O432        O  0.74057349  0.43921458  0.70655801    -0.78180
O433        O  0.80662564  0.61862903  0.76691224    -0.76490
O434        O  0.80022170  0.37922839  0.73096567    -0.80690
O435        O  0.82730054  0.41773823  0.80301462    -0.75540
O436        O  0.73791355  0.56584904  0.70941682    -0.77320
O437        O  0.90105721  0.55842567  0.78803701    -0.80060
C438        C  0.77510900  0.40915366  0.80735592     1.00700
C439        C  0.76635842  0.39211111  0.70644961     1.08140
O440        O  0.82162815  0.49902822  0.74800036    -1.09040
O441        O  0.92635250  0.52583186  0.71490051    -0.71480
O442        O  0.89546325  0.43809018  0.70604881    -0.74960
O443        O  0.73776031  0.43235606  0.78737392    -0.75650
C444        C  0.92267043  0.48116725  0.69631885     0.99610
O445        O  0.92807115  0.47038038  0.77876421    -0.73610
O446        O  0.82726706  0.58196229  0.69323708    -0.78800
C447        C  0.77192713  0.60544888  0.79114976     1.02230
C448        C  0.77511656  0.58956025  0.68911611     1.08150
O449        O  0.74382921  0.55880059  0.79035527    -0.74450
C450        C  0.92780410  0.51548246  0.79686560     1.06450
Fe451      Fe  0.91381301  0.66081161  0.49081713     1.65780
Fe452      Fe  0.06080231  0.63398276  0.99405201     1.73250
Fe453      Fe  0.00279443  0.76130821  0.99756587     1.54420
O454        O  0.94820379  0.76623354  0.95291526    -0.78180
O455        O  0.08803922  0.67788304  0.54265859    -0.76490
O456        O  0.87941445  0.70989467  0.97154811    -0.80690
O457        O  0.87808414  0.73200796  0.51112670    -0.75540
O458        O  0.07186762  0.76198943  0.96074564    -0.77320
O459        O  0.00404502  0.59274821  0.53182733    -0.80060
C460        C  0.89753101  0.75403345  0.53901141     1.00700
C461        C  0.89976657  0.74259579  0.94850593     1.08140
O462        O  0.99500032  0.68087495  0.99612866    -1.09040
O463        O  0.01944206  0.57775486  0.96122680    -0.71480
O464        O  0.93476949  0.61211488  0.94827434    -0.74960
O465        O  0.94773330  0.77460436  0.53890861    -0.75650
C466        C  0.97638143  0.58167484  0.94121242     0.99610
O467        O  0.92158558  0.63402373  0.54059266    -0.73610
O468        O  0.09265878  0.67200183  0.94995182    -0.78800
C469        C  0.09788841  0.72930403  0.54898517     1.02230
C470        C  0.09893317  0.72395119  0.94366323     1.08150
O471        O  0.07234304  0.76863081  0.53216452    -0.74450
C472        C  0.96525452  0.61078371  0.55209720     1.06450
Fe473      Fe  0.91567473  0.33819011  0.00344113     1.65780
Fe474      Fe  0.05276227  0.36336395  0.50235701     1.73250
Fe475      Fe  0.99880290  0.23284745  0.50530332     1.54410
O476        O  0.93079087  0.22492289  0.54396667    -0.78180
O477        O  0.10988709  0.30807601  0.97669089    -0.76490
O478        O  0.90321094  0.31275835  0.55678471    -0.80690
O479        O  0.90179165  0.31011944  0.95416012    -0.75540
O480        O  0.05633756  0.23777312  0.54813609    -0.77320
O481        O  0.03092837  0.38994258  0.96228860    -0.80060
C482        C  0.90353423  0.25917940  0.94500251     1.00700
C483        C  0.90342949  0.26064202  0.56330042     1.08140
O484        O  0.98925545  0.31250915  0.50575373    -1.09040
O485        O  0.02406438  0.40336786  0.54561755    -0.71480
O486        O  0.93667077  0.41962666  0.52831582    -0.74960
O487        O  0.93166409  0.22182156  0.96249490    -0.75650
C488        C  0.97821746  0.42918435  0.54857180     0.99610
O489        O  0.94667372  0.41058490  0.98201207    -0.73610
O490        O  0.10309232  0.31849170  0.53665706    -0.78800
C491        C  0.10006741  0.26792794  0.95529079     1.02230
C492        C  0.09619003  0.27370191  0.55453282     1.08150
O493        O  0.05730118  0.23436533  0.95885600    -0.74450
C494        C  0.98105908  0.40566596  0.95684091     1.06450
Fe495      Fe  0.15541845  0.56896263  0.74340573     1.65780
Fe496      Fe  0.15677722  0.43006288  0.75790438     1.73250
Fe497      Fe  0.27685092  0.50235047  0.75031646     1.54420
O498        O  0.27886488  0.57005250  0.71123754    -0.78180
O499        O  0.19120493  0.42096596  0.80624670    -0.76490
O500        O  0.18902391  0.58123236  0.69509034    -0.80690
O501        O  0.21550935  0.62016206  0.76780124    -0.75540
O502        O  0.27461131  0.44448482  0.70793713    -0.77320
O503        O  0.09276310  0.47207442  0.78213334    -0.80060
C504        C  0.24702303  0.60610090  0.79340354     1.00700
C505        C  0.24082050  0.59134551  0.69069972     1.08140
O506        O  0.19700233  0.50049935  0.75035268    -1.09040
O507        O  0.12369189  0.43775285  0.70953960    -0.71480
O508        O  0.09201171  0.52384518  0.71851389    -0.74960
O509        O  0.27471960  0.56024616  0.79270653    -0.75650
C510        C  0.10060107  0.48156942  0.69858785     0.99610
O511        O  0.12378897  0.55869082  0.79203688    -0.73610
O512        O  0.21778259  0.38189300  0.73388879    -0.78800
C513        C  0.24299082  0.41196113  0.81010575     1.02230
C514        C  0.24760053  0.39738036  0.70771598     1.08150
O515        O  0.28049054  0.43452184  0.78931541    -0.74450
C516        C  0.10271603  0.51318007  0.80288398     1.06450
C517        C  0.01822258  0.53104577  0.62340849     0.01010
C518        C  0.01231947  0.46765305  0.87447058     0.01010
C519        C  0.22954890  0.23668345  0.61765098     0.04060
C520        C  0.26497996  0.26843803  0.63932182     0.04060
C521        C  0.08721472  0.51043878  0.83955910    -0.12940
C522        C  0.06516740  0.46310748  0.85306853    -0.28110
H523        H  0.08323708  0.55070443  0.85297196     0.16080
H524        H  0.07045653  0.42378855  0.83865804     0.16660
C525        C  0.08066810  0.48112868  0.66277401    -0.12940
C526        C  0.06962711  0.52940647  0.64626330    -0.28110
H527        H  0.06658031  0.44068717  0.65222126     0.16080
H528        H  0.08486400  0.56899332  0.65764405     0.16660
C529        C  0.24963700  0.32117514  0.65614734    -0.09780
C530        C  0.24938617  0.35954031  0.67753518    -0.11340
C531        C  0.97370891  0.47175415  0.57595473    -0.12940
C532        C  0.01861529  0.48433325  0.59632338    -0.28110
H533        H  0.93383437  0.49301372  0.57937344     0.16080
H534        H  0.05790843  0.46196083  0.59250669     0.16660
C535        C  0.96360221  0.41745579  0.92105402    -0.12940
C536        C  0.00359744  0.41610361  0.89607252    -0.28110
H537        H  0.92613675  0.44276745  0.91772025     0.16080
H538        H  0.03891159  0.38749309  0.89854344     0.16660
C539        C  0.17704138  0.25719833  0.60241837    -0.09780
C540        C  0.13703331  0.26417603  0.58264210    -0.11340
C541        C  0.96814569  0.60034578  0.58938933    -0.12940
C542        C  0.01731943  0.58505493  0.60354602    -0.28110
H543        H  0.92800751  0.59207310  0.60240839     0.16080
H544        H  0.05621147  0.59577300  0.58958562     0.16660
C545        C  0.01743247  0.51650724  0.90015221    -0.12940
C546        C  0.97309249  0.54714216  0.90979393    -0.28110
H547        H  0.05674312  0.51964005  0.91510476     0.16080
H548        H  0.93253426  0.54316843  0.89647892     0.16660
C549        C  0.96092927  0.51833857  0.82841069    -0.12940
C550        C  0.96498595  0.47244623  0.84843217    -0.28110
H551        H  0.98411024  0.55703087  0.83438452     0.16080
H552        H  0.93821345  0.43566553  0.84301244     0.16660
C553        C  0.96922766  0.52729639  0.64846919    -0.12940
C554        C  0.95311396  0.47889011  0.66341599    -0.28110
H555        H  0.95527294  0.56688421  0.65987567     0.16080
H556        H  0.96580318  0.43838815  0.65297485     0.16660
C557        C  0.45638199  0.03773883  0.82634834    -0.12940
C558        C  0.49196418  0.02462304  0.85204521    -0.28110
H559        H  0.41611694  0.01551852  0.82326414     0.16080
H560        H  0.53119982  0.04853787  0.85581767     0.16660
C561        C  0.53777072  0.05366207  0.67742853    -0.12940
C562        C  0.50016657  0.05179715  0.65129884    -0.28110
H563        H  0.57554409  0.02815936  0.67724455     0.16080
H564        H  0.46374777  0.07932835  0.65125746     0.16660
C565        C  0.36436600  0.24898796  0.66888209    -0.09780
C566        C  0.32071953  0.25181708  0.65177414    -0.11340
C567        C  0.45483901  0.04520565  0.57415941    -0.12940
C568        C  0.45491578  0.00729401  0.60025834    -0.28110
H569        H  0.48419682  0.08085516  0.57405335     0.16080
H570        H  0.42473800  0.97219178  0.60004108     0.16660
C571        C  0.42342320  0.97533780  0.89198898    -0.12940
C572        C  0.40472127  0.02523380  0.90304610    -0.28110
H573        H  0.41123866  0.93763004  0.90660444     0.16080
H574        H  0.41351829  0.06412996  0.88899039     0.16660
C575        C  0.24261072  0.18112609  0.60343544    -0.09780
C576        C  0.24578913  0.13922663  0.58486449    -0.11340
C577        C  0.55737652  0.00875665  0.60594119    -0.12940
C578        C  0.56569019  0.97073233  0.58092039    -0.28110
H579        H  0.58282604  0.04733354  0.60744113     0.16080
H580        H  0.53995768  0.93236740  0.57963272     0.16660
C581        C  0.53438170  0.00778371  0.92408522    -0.12940
C582        C  0.52358069  0.96619594  0.90137457    -0.28110
H583        H  0.51156559  0.04706454  0.92319859     0.16080
H584        H  0.54670730  0.92696993  0.90281829     0.16660
C585        C  0.52825524  0.91945034  0.82990006    -0.12940
C586        C  0.48136155  0.92439589  0.84910608    -0.28110
H587        H  0.56804731  0.93926575  0.83796517     0.16080
H588        H  0.44215838  0.90310516  0.84140862     0.16660
C589        C  0.46002924  0.93987991  0.66751221    -0.12940
C590        C  0.50165676  0.95074761  0.64520177    -0.28110
H591        H  0.42111834  0.96359664  0.66748408     0.16080
H592        H  0.53919472  0.92461452  0.64543837     0.16660
C593        C  0.75468854  0.30755698  0.66053827    -0.09780
C594        C  0.75822454  0.35005672  0.67869537    -0.11340
C595        C  0.68345968  0.23548888  0.66367476    -0.09780
C596        C  0.64395551  0.23641704  0.68455837    -0.11340
C597        C  0.86526898  0.24344515  0.59138222    -0.09780
C598        C  0.82439074  0.23688632  0.61055467    -0.11340
C599        C  0.74982695  0.12856709  0.58561859    -0.09630
C600        C  0.75209171  0.16600079  0.60796281    -0.11340
C601        C  0.67901695  0.73887443  0.64248769    -0.09780
C602        C  0.63561938  0.74158553  0.65991330    -0.11340
C603        C  0.76047885  0.63116937  0.66242882    -0.09780
C604        C  0.75434281  0.67239090  0.64359710    -0.11340
C605        C  0.74461802  0.85542816  0.57322610    -0.09780
C606        C  0.74860499  0.81448737  0.59248994    -0.11340
C607        C  0.82255586  0.74819036  0.59158911    -0.09780
C608        C  0.86172875  0.75175574  0.57054678    -0.11340
C609        C  0.25510464  0.67621932  0.64562676    -0.09780
C610        C  0.25314690  0.63376555  0.66385885    -0.11340
C611        C  0.32138282  0.75122658  0.65253034    -0.09780
C612        C  0.35855936  0.75056133  0.67513662    -0.11340
C613        C  0.18511764  0.74697402  0.59350977    -0.09780
C614        C  0.14282350  0.74133934  0.57490287    -0.11340
C615        C  0.25686696  0.82050390  0.59595779    -0.09780
C616        C  0.26220992  0.86231658  0.57720952    -0.11340
C617        C  0.37350664  0.74481173  0.83429724    -0.09780
C618        C  0.33029677  0.74530247  0.85207638    -0.11340
C619        C  0.25020749  0.64416619  0.82356699    -0.09780
C620        C  0.25279000  0.68163287  0.84561274    -0.11340
C621        C  0.25664388  0.81838322  0.90269104    -0.09780
C622        C  0.26007520  0.86044083  0.92146282    -0.11340
C623        C  0.14193295  0.73858585  0.91755629    -0.09780
C624        C  0.18419179  0.74624566  0.89962187    -0.11340
C625        C  0.25546455  0.36888240  0.83628383    -0.09780
C626        C  0.25541506  0.32565710  0.85382344    -0.11340
C627        C  0.31432366  0.24611399  0.84656561    -0.09780
C628        C  0.35218109  0.24281800  0.82474465    -0.11340
C629        C  0.18011166  0.25795287  0.90578900    -0.09780
C630        C  0.14059828  0.26176139  0.92643396    -0.11340
C631        C  0.24222334  0.18020324  0.90161194    -0.09780
C632        C  0.24051357  0.14029604  0.92205181    -0.11340
C633        C  0.67567795  0.25920440  0.85485303    -0.09780
C634        C  0.63095359  0.25678902  0.83888099    -0.11340
C635        C  0.76043593  0.36644609  0.83339480    -0.09780
C636        C  0.75384208  0.32432883  0.85138821    -0.11340
C637        C  0.74587760  0.18161895  0.90099420    -0.09780
C638        C  0.74050686  0.14137225  0.92065383    -0.11340
C639        C  0.82423531  0.24493803  0.89698613    -0.09780
C640        C  0.86612709  0.24565698  0.91575029    -0.11340
C641        C  0.76539127  0.64650804  0.81963949    -0.09780
C642        C  0.76241107  0.68776798  0.83891298    -0.11340
C643        C  0.65269014  0.75829959  0.81475591    -0.09780
C644        C  0.69267575  0.75909743  0.83544714    -0.11340
C645        C  0.86511597  0.75167697  0.91709987    -0.09780
C646        C  0.82807359  0.75622201  0.89475459    -0.11340
C647        C  0.76148828  0.83025818  0.89074766    -0.09780
C648        C  0.75816840  0.86998937  0.91131280    -0.11340
loop_ 
_geom_bond_atom_site_label_1 
_geom_bond_atom_site_label_2 
_geom_bond_distance 
_geom_bond_site_symmetry_2 
_ccdc_geom_bond_type 
C1            C2   1.386       .  D
C1          C322   1.457       .  S
C1          C323   1.459       .  S
C2          C318   1.458       .  S
C2          C320   1.462       .  S
C3            C4   1.387       .  D
C3          C313   1.458       .  S
C3          C315   1.460       .  S
C4          C309   1.465       .  S
C4          C312   1.463       .  S
C5            C6   1.397       .  D
C5          C305   1.471       .  S
C5          C307   1.468       .  S
C6          C302   1.465       .  S
C6          C303   1.472       .  S
C7            C8   1.389       .  D
C7          C294   1.459       .  S
C7          C296   1.457       .  S
C8          C297   1.467       .  S
C8          C300   1.462       .  S
C9           C10   1.391       .  D
C9          C285   1.460       .  S
C9          C287   1.461       .  S
C10         C289   1.470       .  S
C10         C291   1.468       .  S
C11          C12   1.387       .  D
C11         C277   1.461       .  S
C11         C280   1.461       .  S
C12         C282   1.461       .  S
C12         C283   1.459       .  S
C13          C14   1.400       .  D
C13         C269   1.471       .  S
C13         C271   1.475       .  S
C14         C274   1.466       .  S
C14         C276   1.471       .  S
Fe15         O31   1.984       .  S
Fe15         O21   2.082       .  S
Fe15         O28   2.060       .  S
Fe15         O20   2.019       .  S
Fe15         O26   1.919       .  S
Fe16         O19   2.009       .  S
Fe16         O23   2.041       .  S
Fe16         O27   1.980       .  S
Fe16         O32   2.075       .  S
Fe16         O26   1.923       .  S
Fe17         O35   2.180       .  S
Fe17         O22   2.112       .  S
Fe17         O29   2.113       .  S
Fe17         O18   2.172       .  S
Fe17         O26   1.896       .  S
O18          C25   1.291       .  A
O19          C33   1.249       .  A
O20          C25   1.256       .  A
O21          C24   1.273       .  A
O22          C34   1.282       .  A
O23          C36   1.269       .  A
C24          O29   1.283       .  A
C24         C319   1.462       .  S
C25         C278   1.454       .  S
O27          C30   1.249       .  A
O28          C30   1.277       .  A
C30         C265   1.424       .  S
O31          C36   1.249       .  A
O32          C34   1.272       .  A
C33          O35   1.292       .  A
C33         C293   1.454       .  S
C34         C288   1.462       .  S
C36         C261   1.419       .  S
Fe37         O50   2.034       .  S
Fe37         O42   2.018       .  S
Fe37        O377   2.005       .  S
Fe37        O367   2.039       .  S
Fe37         O48   1.945       .  S
Fe38         O49   2.001       .  S
Fe38         O54   2.024       .  S
Fe38        O365   2.023       .  S
Fe38        O369   2.013       .  S
Fe38         O48   1.939   1_565  S
Fe39         O44   2.139   1_545  S
Fe39         O40   2.172       .  S
Fe39        O381   2.164   1_545  S
Fe39        O375   2.142       .  S
Fe39         O48   1.897       .  S
O40          C47   1.299       .  A
O41        Fe362   2.027   1_554  S
O41          C55   1.262       .  A
O42          C47   1.265       .  A
O43        Fe361   2.038       .  S
O43          C46   1.253       .  A
O44          C56   1.283       .  A
O45        Fe362   2.016   1_554  S
O45          C58   1.257       .  A
C46          O51   1.281       .  A
C46         C275   1.469       .  S
C47         C314   1.452       .  S
O49          C52   1.261   1_565  A
O50          C52   1.258       .  A
O51        Fe363   2.153   1_544  S
C52         C257   1.423       .  S
O53        Fe361   2.003       .  S
O53          C58   1.265   1_545  A
O54          C56   1.255       .  A
C55          O57   1.292       .  A
C55         C281   1.455       .  S
C56         C324   1.454       .  S
O57        Fe363   2.157   1_554  S
C58         C254   1.417       .  S
Fe59         O75   2.003       .  S
Fe59         O65   2.043       .  S
Fe59        O396   2.046       .  S
Fe59        O388   2.007       .  S
Fe59        O394   1.964       .  S
Fe60         O63   2.030       .  S
Fe60         O67   2.054       .  S
Fe60        O395   2.001       .  S
Fe60        O400   2.069       .  S
Fe60        O394   1.919   1_565  S
Fe61         O79   2.162   1_545  S
Fe61         O73   2.145       .  S
Fe61        O390   2.136   1_545  S
Fe61        O386   2.190       .  S
Fe61        O394   1.899       .  S
O62        Fe385   2.195       .  S
O62          C69   1.304       .  A
O63          C77   1.260       .  A
O64        Fe383   2.008   1_554  S
O64          C69   1.263       .  A
O65          C68   1.254       .  A
O66        Fe385   2.131   1_565  S
O66          C78   1.286       .  A
O67          C80   1.276   1_565  A
C68          O73   1.277       .  A
C68         C308   1.465       .  S
C69         C252   1.454       .  S
O70        Fe383   1.965       .  S
O70        Fe384   1.921   1_545  S
O70        Fe385   1.897   1_556  S
O71        Fe384   2.003   1_554  S
O71          C74   1.259   1_565  A
O72        Fe383   2.043   1_554  S
O72          C74   1.257       .  A
C74         C243   1.441       .  S
O75          C80   1.259       .  A
O76        Fe384   2.066   1_554  S
O76          C78   1.268       .  A
C77          O79   1.291       .  A
C77         C298   1.461       .  S
C78         C292   1.464       .  S
C80         C248   1.433       .  S
Fe81         O97   1.983       .  S
Fe81         O87   2.090       .  S
Fe81         O94   2.053       .  S
Fe81         O86   2.019       .  S
Fe81         O92   1.933       .  S
Fe82         O85   2.019       .  S
Fe82         O89   2.040       .  S
Fe82         O93   1.983       .  S
Fe82         O98   2.086       .  S
Fe82         O92   1.927       .  S
Fe83        O101   2.172       .  S
Fe83         O88   2.129       .  S
Fe83         O95   2.132       .  S
Fe83         O84   2.168       .  S
Fe83         O92   1.911       .  S
O84          C91   1.287       .  A
O85          C99   1.249       .  A
O86          C91   1.252       .  A
O87          C90   1.275       .  A
O88         C100   1.289       .  A
O89         C102   1.270       .  A
C90          O95   1.288       .  A
C90         C272   1.474       .  S
C91         C310   1.456       .  S
O93          C96   1.251       .  A
O94          C96   1.271       .  A
C96         C233   1.423       .  S
O97         C102   1.251       .  A
O98         C100   1.274       .  A
C99         O101   1.286       .  A
C99         C241   1.459       .  S
C100        C304   1.471       .  S
C102        C237   1.416       .  S
C103        C238   1.477       .  S
C103        C244   1.492       .  S
C103        C253   1.484       .  S
C103        C266   1.487   1_545  S
C104        C234   1.505   1_565  S
C104        C247   1.496       .  S
C104        C258   1.483       .  S
C104        C262   1.480       .  S
Fe105       O121   2.010       .  S
Fe105       O111   2.068       .  S
Fe105       O118   2.058       .  S
Fe105       O110   2.043       .  S
Fe105       O116   1.919       .  S
Fe106       O109   2.012       .  S
Fe106       O113   2.063       .  S
Fe106       O117   2.010       .  S
Fe106       O122   2.056       .  S
Fe106       O116   1.957       .  S
Fe107       O125   2.171       .  S
Fe107       O112   2.124       .  S
Fe107       O119   2.122       .  S
Fe107       O108   2.159       .  S
Fe107       O116   1.912       .  S
O108        C115   1.289       .  A
O109        C123   1.259       .  A
O110        C115   1.262       .  A
O111        C114   1.269       .  A
O112        C124   1.278       .  A
O113        C126   1.262       .  A
C114        O119   1.284       .  A
C114        C311   1.460       .  S
C115        C270   1.466       .  S
O117        C120   1.258       .  A
O118        C120   1.276       .  A
C120        C230   1.445       .  S
O121        C126   1.259       .  A
O122        C124   1.261       .  A
C123        O125   1.294       .  A
C123        C317   1.447       .  S
C124        C279   1.456       .  S
C126        C225   1.456       .  S
Fe127       O143   2.056   1_556  S
Fe127       O133   2.016   1_556  S
Fe127       O464   2.014       .  S
Fe127       O456   2.052       .  S
Fe127       O462   1.961       .  S
Fe128       O139   2.007       .  S
Fe128       O144   2.064       .  S
Fe128       O455   2.042       .  S
Fe128       O459   2.052       .  S
Fe128       O138   1.914   1_455  S
Fe129       O134   2.123       .  S
Fe129       O130   2.181   1_455  S
Fe129       O471   2.159       .  S
Fe129       O465   2.136   1_455  S
Fe129       O138   1.905   1_455  S
O130        C137   1.299       .  A
O131       Fe452   2.062   1_554  S
O131        C145   1.265       .  A
O132       Fe451   2.006       .  S
O132        C137   1.261       .  A
O133        C136   1.260       .  A
O134        C146   1.286       .  A
O135       Fe452   2.009   1_554  S
O135        C148   1.260   1_455  A
C136        O141   1.294       .  A
C136        C284   1.452       .  S
C137        C321   1.447       .  S
O138       Fe451   1.968       .  S
O139        C142   1.259   1_455  A
O140       Fe451   2.059       .  S
O140        C142   1.261       .  A
O141       Fe453   2.169   1_654  S
C142        C222   1.453       .  S
O143        C148   1.261       .  A
O144        C146   1.269       .  A
C145        O147   1.284       .  A
C145        C290   1.464       .  S
C146        C299   1.458       .  S
O147       Fe453   2.130   1_554  S
C148        C217   1.447       .  S
Fe149       O165   1.999       .  S
Fe149       O155   2.049       .  S
Fe149       O486   2.059       .  S
Fe149       O478   2.011       .  S
Fe149       O484   1.963       .  S
Fe150       O161   2.037       .  S
Fe150       O166   2.027       .  S
Fe150       O477   2.062   1_554  S
Fe150       O481   1.998   1_554  S
Fe150       O160   1.937   1_455  S
Fe151       O156   2.157   1_655  S
Fe151       O152   2.139       .  S
Fe151       O493   2.131   1_654  S
Fe151       O487   2.181   1_554  S
Fe151       O160   1.888       .  S
O152        C159   1.279       .  A
O153       Fe474   2.042       .  S
O153        C167   1.261       .  A
O154       Fe473   2.042       .  S
O154        C159   1.256       .  A
O155        C158   1.258       .  A
O156        C168   1.291       .  A
O157       Fe474   2.057       .  S
O157        C170   1.277   1_455  A
C158        O163   1.273       .  A
C158        C316   1.460       .  S
C159        C273   1.462       .  S
O160       Fe473   1.961       .  S
O161        C164   1.270   1_455  A
O162       Fe473   2.008       .  S
O162        C164   1.257       .  A
O163       Fe475   2.124       .  S
C164        C207   1.431       .  S
O165        C170   1.257       .  A
O166        C168   1.262       .  A
C167        O169   1.288       .  A
C167        C306   1.466       .  S
C168        C216   1.453       .  S
O169       Fe475   2.157   1_455  S
C170        C211   1.434       .  S
Fe171       O187   2.007       .  S
Fe171       O177   2.038       .  S
Fe171       O184   2.028       .  S
Fe171       O176   2.003       .  S
Fe171       O182   1.963       .  S
Fe172       O175   2.025       .  S
Fe172       O179   2.047       .  S
Fe172       O183   1.993       .  S
Fe172       O188   2.069       .  S
Fe172       O182   1.928       .  S
Fe173       O191   2.165       .  S
Fe173       O178   2.114       .  S
Fe173       O185   2.128       .  S
Fe173       O174   2.194       .  S
Fe173       O182   1.893       .  S
O174        C181   1.302       .  A
O175        C189   1.260       .  A
O176        C181   1.258       .  A
O177        C180   1.255       .  A
O178        C190   1.282       .  A
O179        C192   1.273       .  A
C180        O185   1.275       .  A
C180        C295   1.455       .  S
C181        C286   1.452       .  S
O183        C186   1.259       .  A
O184        C186   1.258       .  A
C186        C201   1.441       .  S
O187        C192   1.258       .  A
O188        C190   1.270       .  A
C189        O191   1.292       .  A
C189        C301   1.458       .  S
C190        C206   1.455       .  S
C192        C197   1.433       .  S
C193        C202   1.487       .  S
C193        C208   1.496       .  S
C193        C218   1.496       .  S
C193        C229   1.505   1_455  S
C194        C198   1.494       .  S
C194        C212   1.490       .  S
C194        C221   1.504       .  S
C194        C226   1.507   1_455  S
C195        C196   1.388       .  D
C195        C215   1.459       .  S
C195        C251   1.462       .  S
C196        C205   1.460       .  S
C196        C242   1.466       .  S
C197        C198   1.338       .  D
C197        H199   1.085       .  S
C198        H200   1.089       .  S
C201        C202   1.339       .  D
C201        H203   1.085       .  S
C202        H204   1.089       .  S
C205        C206   1.219       .  T
C207        C208   1.338   1_655  D
C207        H209   1.085       .  S
C208        H210   1.089       .  S
C211        C212   1.336   1_655  D
C211        H213   1.085       .  S
C212        H214   1.089       .  S
C215        C216   1.218       .  T
C217        C218   1.338   1_655  D
C217        H219   1.085       .  S
C218        H220   1.088       .  S
C221        C222   1.339   1_455  D
C221        H223   1.087       .  S
C222        H224   1.084       .  S
C225        C226   1.341       .  D
C225        H227   1.084       .  S
C226        H228   1.087       .  S
C229        C230   1.332       .  D
C229        H231   1.089       .  S
C230        H232   1.086       .  S
C233        C234   1.323       .  D
C233        H235   1.087       .  S
C234        H236   1.089       .  S
C237        C238   1.328       .  D
C237        H239   1.087       .  S
C238        H240   1.090       .  S
C241        C242   1.223       .  T
C243        C244   1.337       .  D
C243        H245   1.086       .  S
C244        H246   1.089   1_545  S
C247        C248   1.337   1_565  D
C247        H249   1.089       .  S
C248        H250   1.084       .  S
C251        C252   1.221       .  T
C253        C254   1.324   1_545  D
C253        H255   1.089       .  S
C254        H256   1.088       .  S
C257        C258   1.328   1_545  D
C257        H259   1.085       .  S
C258        H260   1.089       .  S
C261        C262   1.332       .  D
C261        H263   1.088       .  S
C262        H264   1.088       .  S
C265        C266   1.321       .  D
C265        H267   1.086       .  S
C266        H268   1.092       .  S
C269        C270   1.226       .  T
C271        C272   1.230       .  T
C273        C274   1.224       .  T
C275        C276   1.229       .  T
C277        C278   1.220       .  T
C279        C280   1.220       .  T
C281        C282   1.220       .  T
C283        C284   1.219       .  T
C285        C286   1.220       .  T
C287        C288   1.222       .  T
C289        C290   1.224       .  T
C291        C292   1.224       .  T
C293        C294   1.221       .  T
C295        C296   1.219       .  T
C297        C298   1.224       .  T
C299        C300   1.220       .  T
C301        C302   1.222       .  T
C303        C304   1.228       .  T
C305        C306   1.226       .  T
C307        C308   1.226       .  T
C309        C310   1.221       .  T
C311        C312   1.221       .  T
C313        C314   1.218       .  T
C315        C316   1.221       .  T
C317        C318   1.216       .  T
C319        C320   1.222       .  T
C321        C322   1.216       .  T
C323        C324   1.220       .  T
C325        C326   1.393       .  D
C325        C646   1.463       .  S
C325        C647   1.466       .  S
C326        C642   1.464       .  S
C326        C644   1.468       .  S
C327        C328   1.385       .  D
C327        C637   1.456       .  S
C327        C639   1.455       .  S
C328        C633   1.457       .  S
C328        C636   1.460       .  S
C329        C330   1.393       .  D
C329        C629   1.465       .  S
C329        C631   1.467       .  S
C330        C626   1.466       .  S
C330        C627   1.462       .  S
C331        C332   1.391       .  D
C331        C618   1.465       .  S
C331        C620   1.457       .  S
C332        C621   1.468       .  S
C332        C624   1.464       .  S
C333        C334   1.396       .  D
C333        C609   1.464       .  S
C333        C611   1.465       .  S
C334        C613   1.473       .  S
C334        C615   1.471       .  S
C335        C336   1.393       .  D
C335        C601   1.467       .  S
C335        C604   1.464       .  S
C336        C606   1.461       .  S
C336        C607   1.466       .  S
C337        C338   1.391       .  D
C337        C593   1.463       .  S
C337        C595   1.466       .  S
C338        C598   1.459       .  S
C338        C600   1.465       .  S
Fe339       O355   1.986       .  S
Fe339       O345   2.083       .  S
Fe339       O352   2.062       .  S
Fe339       O344   2.021       .  S
Fe339       O350   1.922       .  S
Fe340       O343   2.011       .  S
Fe340       O347   2.039       .  S
Fe340       O351   1.979       .  S
Fe340       O356   2.075       .  S
Fe340       O350   1.927       .  S
Fe341       O359   2.190       .  S
Fe341       O346   2.121       .  S
Fe341       O353   2.124       .  S
Fe341       O342   2.179       .  S
Fe341       O350   1.894       .  S
O342        C349   1.293       .  A
O343        C357   1.249       .  A
O344        C349   1.256       .  A
O345        C348   1.273       .  A
O346        C358   1.284       .  A
O347        C360   1.268       .  A
C348        O353   1.285       .  A
C348        C643   1.467       .  S
C349        C602   1.460       .  S
O351        C354   1.249       .  A
O352        C354   1.277       .  A
C354        C589   1.423       .  S
O355        C360   1.249       .  A
O356        C358   1.272       .  A
C357        O359   1.293       .  A
C357        C617   1.460       .  S
C358        C612   1.466       .  S
C360        C585   1.420       .  S
Fe361       O374   2.033   1_554  S
Fe361       O366   2.019   1_554  S
Fe361       O372   1.948   1_544  S
Fe362       O373   2.003       .  S
Fe362       O378   2.022       .  S
Fe362       O372   1.941       .  S
Fe363       O368   2.150       .  S
Fe363       O364   2.169   1_565  S
Fe363       O372   1.901       .  S
O364        C371   1.298       .  A
O365        C379   1.261       .  A
O366        C371   1.266       .  A
O367        C370   1.254       .  A
O368        C380   1.285       .  A
O369        C382   1.256       .  A
C370        O375   1.279       .  A
C370        C599   1.463       .  S
C371        C638   1.451       .  S
O373        C376   1.261   1_565  A
O374        C376   1.257       .  A
C376        C581   1.425       .  S
O377        C382   1.265   1_545  A
O378        C380   1.255       .  A
C379        O381   1.294       .  A
C379        C605   1.456       .  S
C380        C648   1.460       .  S
C382        C578   1.417       .  S
Fe383       O399   2.005       .  S
Fe383       O389   2.041       .  S
Fe384       O387   2.030       .  S
Fe384       O391   2.053       .  S
Fe385       O403   2.166   1_544  S
Fe385       O397   2.143   1_554  S
O386        C393   1.302       .  A
O387        C401   1.260       .  A
O388        C393   1.262       .  A
O389        C392   1.254       .  A
O390        C402   1.287       .  A
O391        C404   1.275   1_565  A
C392        O397   1.276       .  A
C392        C632   1.463       .  S
C393        C576   1.451       .  S
O395        C398   1.259   1_565  A
O396        C398   1.257       .  A
C398        C567   1.441       .  S
O399        C404   1.259       .  A
O400        C402   1.269       .  A
C401        O403   1.292       .  A
C401        C622   1.463       .  S
C402        C616   1.468       .  S
C404        C572   1.433       .  S
Fe405       O421   1.980       .  S
Fe405       O411   2.086       .  S
Fe405       O418   2.049       .  S
Fe405       O410   2.016       .  S
Fe405       O416   1.929       .  S
Fe406       O409   2.018       .  S
Fe406       O413   2.042       .  S
Fe406       O417   1.985       .  S
Fe406       O422   2.085       .  S
Fe406       O416   1.920       .  S
Fe407       O425   2.163       .  S
Fe407       O412   2.112       .  S
Fe407       O419   2.118       .  S
Fe407       O408   2.163       .  S
Fe407       O416   1.912       .  S
O408        C415   1.286       .  A
O409        C423   1.249       .  A
O410        C415   1.251       .  A
O411        C414   1.274       .  A
O412        C424   1.285       .  A
O413        C426   1.271       .  A
C414        O419   1.285       .  A
C414        C596   1.466       .  S
C415        C634   1.449       .  S
O417        C420   1.252       .  A
O418        C420   1.270       .  A
C420        C557   1.422       .  S
O421        C426   1.251       .  A
O422        C424   1.275       .  A
C423        O425   1.285       .  A
C423        C565   1.454       .  S
C424        C628   1.461       .  S
C426        C561   1.415       .  S
C427        C562   1.477       .  S
C427        C568   1.491       .  S
C427        C577   1.483       .  S
C427        C590   1.488   1_545  S
C428        C558   1.505   1_565  S
C428        C571   1.497       .  S
C428        C582   1.484       .  S
C428        C586   1.481       .  S
Fe429       O445   2.050       .  S
Fe429       O435   2.023       .  S
Fe429       O442   2.012       .  S
Fe429       O434   2.059       .  S
Fe429       O440   1.935       .  S
Fe430       O433   2.068       .  S
Fe430       O437   2.002       .  S
Fe430       O441   2.053       .  S
Fe430       O446   2.025       .  S
Fe430       O440   1.931       .  S
Fe431       O449   2.123       .  S
Fe431       O436   2.170       .  S
Fe431       O443   2.167       .  S
Fe431       O432   2.124       .  S
Fe431       O440   1.901       .  S
O432        C439   1.282       .  A
O433        C447   1.268       .  A
O434        C439   1.265       .  A
O435        C438   1.259       .  A
O436        C448   1.292       .  A
O437        C450   1.254       .  A
C438        O443   1.292       .  A
C438        C635   1.454       .  S
C439        C594   1.456       .  S
O441        C444   1.272       .  A
O442        C444   1.256       .  A
C444        C554   1.440       .  S
O445        C450   1.269       .  A
O446        C448   1.259       .  A
C447        O449   1.283       .  A
C447        C641   1.460       .  S
C448        C603   1.459       .  S
C450        C549   1.426       .  S
Fe451       O467   1.997       .  S
Fe451       O457   2.050       .  S
Fe452       O463   2.054       .  S
Fe452       O468   2.038       .  S
Fe452       O462   1.930   1_455  S
Fe453       O458   2.148       .  S
Fe453       O454   2.127   1_455  S
Fe453       O462   1.916   1_455  S
O454        C461   1.278       .  A
O455        C469   1.261       .  A
O456        C461   1.260       .  A
O457        C460   1.258       .  A
O458        C470   1.288       .  A
O459        C472   1.275   1_455  A
C460        O465   1.277       .  A
C460        C608   1.464       .  S
C461        C645   1.459       .  S
O463        C466   1.272   1_455  A
O464        C466   1.259       .  A
C466        C546   1.442       .  S
O467        C472   1.256       .  A
O468        C470   1.263       .  A
C469        O471   1.289       .  A
C469        C614   1.468       .  S
C470        C623   1.457       .  S
C472        C541   1.433       .  S
Fe473       O489   2.029   1_554  S
Fe473       O479   2.001   1_554  S
Fe474       O485   2.013       .  S
Fe474       O490   2.067       .  S
Fe474       O484   1.917   1_455  S
Fe475       O480   2.114   1_655  S
Fe475       O476   2.182       .  S
Fe475       O484   1.908       .  S
O476        C483   1.299       .  A
O477        C491   1.267       .  A
O478        C483   1.262       .  A
O479        C482   1.258       .  A
O480        C492   1.283       .  A
O481        C494   1.259   1_455  A
C482        O487   1.299       .  A
C482        C640   1.446       .  S
C483        C597   1.450       .  S
O485        C488   1.259   1_455  A
O486        C488   1.261       .  A
C488        C531   1.450       .  S
O489        C494   1.259       .  A
O490        C492   1.270       .  A
C491        O493   1.285       .  A
C491        C630   1.462       .  S
C492        C540   1.455       .  S
C494        C535   1.443       .  S
Fe495       O511   2.000       .  S
Fe495       O501   2.069       .  S
Fe495       O508   2.053       .  S
Fe495       O500   2.013       .  S
Fe495       O506   1.932       .  S
Fe496       O499   2.012       .  S
Fe496       O503   2.043       .  S
Fe496       O507   1.997       .  S
Fe496       O512   2.066       .  S
Fe496       O506   1.933       .  S
Fe497       O515   2.189       .  S
Fe497       O502   2.107       .  S
Fe497       O509   2.109       .  S
Fe497       O498   2.186       .  S
Fe497       O506   1.888       .  S
O498        C505   1.297       .  A
O499        C513   1.255       .  A
O500        C505   1.256       .  A
O501        C504   1.269       .  A
O502        C514   1.279       .  A
O503        C516   1.269       .  A
C504        O509   1.280       .  A
C504        C619   1.454       .  S
C505        C610   1.458       .  S
O507        C510   1.254       .  A
O508        C510   1.272       .  A
C510        C525   1.432       .  S
O511        C516   1.253       .  A
O512        C514   1.268       .  A
C513        O515   1.297       .  A
C513        C625   1.458       .  S
C514        C530   1.451       .  S
C516        C521   1.436       .  S
C517        C526   1.491       .  S
C517        C532   1.507       .  S
C517        C542   1.488       .  S
C517        C553   1.500   1_455  S
C518        C522   1.496       .  S
C518        C536   1.485       .  S
C518        C545   1.513       .  S
C518        C550   1.495   1_455  S
C519        C520   1.384       .  D
C519        C539   1.459       .  S
C519        C575   1.461       .  S
C520        C529   1.454       .  S
C520        C566   1.459       .  S
C521        C522   1.335       .  D
C521        H523   1.086       .  S
C522        H524   1.088       .  S
C525        C526   1.336       .  D
C525        H527   1.086       .  S
C526        H528   1.088       .  S
C529        C530   1.216       .  T
C531        C532   1.340   1_655  D
C531        H533   1.085       .  S
C532        H534   1.088       .  S
C535        C536   1.339   1_655  D
C535        H537   1.086       .  S
C536        H538   1.089       .  S
C539        C540   1.218       .  T
C541        C542   1.335   1_655  D
C541        H543   1.086       .  S
C542        H544   1.088       .  S
C545        C546   1.337   1_455  D
C545        H547   1.088       .  S
C546        H548   1.085       .  S
C549        C550   1.333       .  D
C549        H551   1.085       .  S
C550        H552   1.089       .  S
C553        C554   1.333       .  D
C553        H555   1.089       .  S
C554        H556   1.085       .  S
C557        C558   1.325       .  D
C557        H559   1.087       .  S
C558        H560   1.089       .  S
C561        C562   1.328       .  D
C561        H563   1.087       .  S
C562        H564   1.090       .  S
C565        C566   1.220       .  T
C567        C568   1.337       .  D
C567        H569   1.086       .  S
C568        H570   1.088   1_545  S
C571        C572   1.337   1_565  D
C571        H573   1.089       .  S
C572        H574   1.084       .  S
C575        C576   1.219       .  T
C577        C578   1.323   1_545  D
C577        H579   1.089       .  S
C578        H580   1.088       .  S
C581        C582   1.328   1_545  D
C581        H583   1.086       .  S
C582        H584   1.089       .  S
C585        C586   1.333       .  D
C585        H587   1.088       .  S
C586        H588   1.087       .  S
C589        C590   1.321       .  D
C589        H591   1.087       .  S
C590        H592   1.091       .  S
C593        C594   1.220       .  T
C595        C596   1.225       .  T
C597        C598   1.218       .  T
C599        C600   1.225       .  T
C601        C602   1.223       .  T
C603        C604   1.222       .  T
C605        C606   1.221       .  T
C607        C608   1.224       .  T
C609        C610   1.223       .  T
C611        C612   1.225       .  T
C613        C614   1.227       .  T
C615        C616   1.226       .  T
C617        C618   1.225       .  T
C619        C620   1.218       .  T
C621        C622   1.225       .  T
C623        C624   1.220       .  T
C625        C626   1.223       .  T
C627        C628   1.222       .  T
C629        C630   1.223       .  T
C631        C632   1.224       .  T
C633        C634   1.217       .  T
C635        C636   1.219       .  T
C637        C638   1.217       .  T
C639        C640   1.217       .  T
C641        C642   1.222       .  T
C643        C644   1.226       .  T
C645        C646   1.222       .  T
C647        C648   1.224       .  T
