geometry optimzed in LAMMPS
_audit_creation_date              2020-11-30 
_audit_creation_method            'lammps2cif' 
_symmetry_space_group_name_H-M    'P1' 
_symmetry_Int_Tables_number       1 
_symmetry_cell_setting            triclinic 
loop_ 
_symmetry_equiv_pos_as_xyz 
  x,y,z 
_cell_length_a                    33.965068638470555 
_cell_length_b                    46.744552290138884 
_cell_length_c                    88.31317805517038 
_cell_angle_alpha                 89.79561548427516 
_cell_angle_beta                  90.37150843831262 
_cell_angle_gamma                 90.32814263749624 
loop_ 
_atom_site_label 
_atom_site_type_symbol 
_atom_site_fract_x 
_atom_site_fract_y 
_atom_site_fract_z 
_atom_site_charge 
N1          N  0.24683855  0.07802148  0.28751694    -0.05840
N2          N  0.23648527  0.10072736  0.27947405    -0.57960
N3          N  0.26357245  0.01242846  0.30385169    -0.05520
N4          N  0.25437410  0.48496257  0.30421486    -0.60090
N5          N  0.23723589  0.02756041  0.31100926    -0.05120
N6          N  0.20936704  0.01066013  0.31651549    -0.57930
N7          N  0.27271488  0.06273791  0.28008272    -0.04790
N8          N  0.28028540  0.07498022  0.26685290    -0.60440
C9          C  0.25700822  0.09834729  0.26651147     0.96340
C10         C  0.22071535  0.48419562  0.31223134     0.96120
N11         N  0.38547144  0.01810881  0.31267951    -0.06020
N12         N  0.41150434  0.49898674  0.31716849    -0.58540
N13         N  0.36050045  0.05265271  0.28035122    -0.04140
N14         N  0.36760796  0.04251542  0.26684505    -0.59790
N15         N  0.39329862  0.06006892  0.28733867    -0.06050
N16         N  0.42358667  0.05254650  0.27875856    -0.58800
N17         N  0.35671557  0.50584603  0.30488597    -0.03790
N18         N  0.36301328  0.47792262  0.30396653    -0.59880
Mn19       Mn  0.31268757  0.03293050  0.29225292     1.18440
C20         C  0.39696510  0.47401663  0.31189170     0.98420
C21         C  0.40672938  0.04219914  0.26584658     0.99080
N22         N  0.24403325  0.07284768  0.33681895    -0.06070
N23         N  0.21465936  0.06519171  0.34560916    -0.62380
N24         N  0.27670012  0.13338736  0.32164595    -0.04880
N25         N  0.26903149  0.16078696  0.32380920    -0.63060
N26         N  0.24787405  0.12117993  0.31400325    -0.05580
N27         N  0.22017761  0.13996649  0.31075445    -0.62650
N28         N  0.27254702  0.08501925  0.34474841    -0.04480
N29         N  0.26283879  0.08593991  0.35917956    -0.63340
Mn30       Mn  0.24288636  0.07454846  0.31221979     1.10660
C31         C  0.22710998  0.07303930  0.35946903     0.99640
C32         C  0.23402296  0.16458781  0.31673499     0.99720
N33         N  0.39593877  0.11258258  0.31263727    -0.05590
N34         N  0.42401340  0.12970600  0.30745934    -0.60960
N35         N  0.36729030  0.08241366  0.34517074    -0.04910
N36         N  0.37842118  0.08608187  0.35940865    -0.57690
N37         N  0.39383729  0.06755594  0.33779021    -0.06220
N38         N  0.42343410  0.06089874  0.34697967    -0.60530
N39         N  0.36992536  0.12757708  0.32030753    -0.05200
N40         N  0.37961491  0.15493624  0.32035774    -0.57710
Mn41       Mn  0.39308616  0.06479073  0.31261591     1.20190
Mn42       Mn  0.32174669  0.10739566  0.33324858     1.10090
Cl43       Cl  0.31796966  0.06981732  0.31281457    -0.85680
C44         C  0.41300759  0.15600309  0.31221357     0.96650
C45         C  0.41308686  0.07221728  0.36046357     0.96290
N46         N  0.02227352  0.38173839  0.30710574    -0.05840
N47         N  0.49394135  0.39771229  0.30122453    -0.57960
N48         N  0.11128983  0.38206931  0.32315271    -0.05520
N49         N  0.13616969  0.40154239  0.32839837    -0.60090
N50         N  0.11310762  0.38079714  0.30825554    -0.05120
N51         N  0.13910389  0.39950498  0.30310949    -0.57930
N52         N  0.02078360  0.38226912  0.32195796    -0.04790
N53         N  0.49155124  0.39864142  0.32652761    -0.60440
C54         C  0.47489809  0.40792647  0.31346789     0.96340
C55         C  0.15359987  0.41189793  0.31579087     0.96120
N56         N  0.10760415  0.30693632  0.34985226    -0.06020
N57         N  0.13475848  0.29795229  0.35957522    -0.58540
N58         N  0.01754534  0.33472926  0.34675395    -0.04140
N59         N  0.48699377  0.34497666  0.35401788    -0.59790
N60         N  0.01692203  0.30656705  0.34694626    -0.06050
N61         N  0.48599058  0.29704680  0.35445094    -0.58800
N62         N  0.10780358  0.33510949  0.34918416    -0.03790
N63         N  0.13480025  0.34580763  0.35839346    -0.59880
Mn64       Mn  0.06454147  0.35916576  0.33566823     1.18440
C65         C  0.15153663  0.32249913  0.36468764     0.98420
C66         C  0.46750547  0.32128540  0.35854781     0.99080
N67         N  0.11220662  0.33093112  0.28164435    -0.06070
N68         N  0.11502942  0.33080539  0.26659249    -0.62380
N69         N  0.03350375  0.30794531  0.27951506    -0.04880
N70         N  0.53674256  0.30655551  0.26449640    -0.63060
N71         N  0.02287978  0.33416139  0.28302923    -0.05580
N72         N  0.51349779  0.34876970  0.27081675    -0.62650
N73         N  0.12160604  0.30524954  0.28661147    -0.04480
N74         N  0.13639949  0.28969539  0.27574296    -0.63340
Mn75       Mn  0.06802209  0.35710563  0.29509708     1.10660
C76         C  0.13014723  0.30470861  0.26312431     0.99640
C77         C  0.52430003  0.33240234  0.25923526     0.99720
N78         N  0.02102307  0.25824826  0.32177198    -0.05590
N79         N  0.49495451  0.23863803  0.32587726    -0.60960
N80         N  0.11312660  0.25826962  0.31031128    -0.04910
N81         N  0.14170278  0.24151598  0.30565201    -0.57690
N82         N  0.11101181  0.25792406  0.32515088    -0.06220
N83         N  0.13802681  0.24068451  0.33094539    -0.60530
N84         N  0.02338089  0.25942390  0.30686283    -0.05200
N85         N  0.49928400  0.24051231  0.30061002    -0.57710
Mn86       Mn  0.06397916  0.28166503  0.33642934     1.20190
Mn87       Mn  0.07223873  0.28266056  0.29590790     1.10090
Cl88       Cl  0.06705978  0.32011469  0.31600091    -0.85680
C89         C  0.48137606  0.22808546  0.31257363     0.96650
C90         C  0.15710208  0.23090849  0.31859391     0.96450
N91         N  0.03830100  0.43030329  0.21735677    -0.05840
N92         N  0.06404440  0.41092012  0.22237331    -0.57960
N93         N  0.49930818  0.38266532  0.19968284    -0.05520
N94         N  0.50952612  0.35566946  0.20184024    -0.60090
N95         N  0.02564371  0.39558455  0.19105366    -0.05120
N96         N  0.05377302  0.37786729  0.18722899    -0.57930
N97         N  0.50600124  0.42746454  0.22539258    -0.04790
N98         N  0.01205923  0.41071190  0.23714393    -0.60440
C99         C  0.04713610  0.39896998  0.23481304     0.96340
C100        C  0.04308670  0.35307416  0.19375930     0.96120
N101        N  0.37934117  0.40323246  0.19552762    -0.06020
N102        N  0.35063951  0.38642914  0.19051249    -0.58540
N103        N  0.41912762  0.43718028  0.22641510    -0.04140
N104        N  0.43175906  0.45029887  0.23881218    -0.59790
N105        N  0.39200262  0.45268450  0.21959413    -0.06050
N106        N  0.38604587  0.47648691  0.22730133    -0.58800
N107        N  0.40672829  0.38806553  0.20221469    -0.03790
N108        N  0.39750247  0.36059850  0.20198455    -0.59880
Mn109      Mn  0.45699658  0.40849952  0.21337698     1.18440
C110        C  0.36268881  0.35990766  0.19454127     0.98420
C111        C  0.41071003  0.47459466  0.23929104     0.99080
N112        N  0.03155788  0.44748657  0.16776197    -0.06070
N113        N  0.05978003  0.44095222  0.15813926    -0.62380
N114        N  0.00938870  0.00531032  0.18721074    -0.04880
N115        N  0.01912925  0.03268731  0.18781927    -0.63060
N116        N  0.03620359  0.48951684  0.19423764    -0.05580
N117        N  0.06479424  0.00619926  0.19957333    -0.62650
N118        N  0.00455243  0.46312351  0.16098251    -0.04480
N119        N  0.01406269  0.46763367  0.14667123    -0.63340
Mn120      Mn  0.03349787  0.44140050  0.19259038     1.10660
C121        C  0.04819549  0.45332051  0.14501414     0.99640
C122        C  0.05338470  0.03304952  0.19565706     0.99720
N123        N  0.38749710  0.99624514  0.19402439    -0.05590
N124        N  0.35852303  0.01344311  0.19762661    -0.60960
N125        N  0.40996360  0.46420499  0.16230378    -0.04910
N126        N  0.39907216  0.46635779  0.14797087    -0.57690
N127        N  0.38254198  0.45064233  0.17012393    -0.06220
N128        N  0.35266108  0.44340673  0.16131873    -0.60530
N129        N  0.41494549  0.01002766  0.18649540    -0.05200
N130        N  0.40477709  0.03708940  0.18465787    -0.57710
Mn131      Mn  0.38413313  0.45009580  0.19490659     1.20190
Mn132      Mn  0.45988063  0.48620207  0.17395550     1.10090
Cl133      Cl  0.45886837  0.44652668  0.19337726    -0.85680
C134        C  0.36993650  0.03879126  0.19192725     0.96650
C135        C  0.36371809  0.45291393  0.14756353     0.96450
N136        N  0.13257883  0.20686695  0.22012271    -0.05840
N137        N  0.10495060  0.22344290  0.22611624    -0.57960
N138        N  0.16533406  0.25877564  0.20258376    -0.05520
N139        N  0.15597081  0.28611018  0.20400894    -0.60090
N140        N  0.13767703  0.24541220  0.19477176    -0.05120
N141        N  0.10939654  0.26291903  0.19071623    -0.57930
N142        N  0.16594992  0.21203222  0.22734669    -0.04790
N143        N  0.15985039  0.22806379  0.23929318    -0.60440
C144        C  0.12254338  0.23650265  0.23809562     0.96340
C145        C  0.12134415  0.28816035  0.19630747     0.96120
N146        N  0.28497601  0.24194495  0.19455677    -0.06020
N147        N  0.31157567  0.26005270  0.18920587    -0.58540
N148        N  0.25441514  0.20386295  0.22553135    -0.04140
N149        N  0.24791430  0.19022722  0.23845657    -0.59790
N150        N  0.28048538  0.18988773  0.21747870    -0.06050
N151        N  0.29193677  0.16662156  0.22485265    -0.58800
N152        N  0.25851803  0.25560299  0.20243128    -0.03790
N153        N  0.26637244  0.28328943  0.20269628    -0.59880
Mn154      Mn  0.21182188  0.23288029  0.21446855     1.18440
C155        C  0.29926487  0.28574138  0.19429284     0.98420
C156        C  0.27194719  0.16733624  0.23801054     0.99080
N157        N  0.13045299  0.19795802  0.17050438    -0.06070
N158        N  0.10185040  0.20877084  0.16218554    -0.62380
N159        N  0.15828564  0.13754541  0.18627788    -0.04880
N160        N  0.14989383  0.10987761  0.18624942    -0.63060
N161        N  0.13301460  0.15148452  0.19488325    -0.05580
N162        N  0.10686584  0.13335924  0.20063748    -0.62650
N163        N  0.15604575  0.18455995  0.16200251    -0.04480
N164        N  0.14497769  0.18571352  0.14763149    -0.63340
Mn165      Mn  0.13304562  0.19949261  0.19513641     1.10660
C166        C  0.11137713  0.20109426  0.14804523     0.99640
C167        C  0.11813272  0.10748460  0.19532340     0.99720
N168        N  0.28024930  0.14911953  0.19057506    -0.05590
N169        N  0.30842779  0.13149324  0.19465329    -0.60960
N170        N  0.25138366  0.18481765  0.15998284    -0.04910
N171        N  0.25898695  0.18662358  0.14527560    -0.57690
N172        N  0.27952960  0.19785501  0.16775675    -0.06220
N173        N  0.30642628  0.20867209  0.15861492    -0.60530
N174        N  0.25210682  0.13556646  0.18323030    -0.05200
N175        N  0.26080724  0.10811486  0.18204372    -0.57710
Mn176      Mn  0.28247997  0.19516238  0.19264371     1.20190
Mn177      Mn  0.20421028  0.15996677  0.17238859     1.10090
Cl178      Cl  0.20762060  0.19676133  0.19345292    -0.85680
C179        C  0.29577984  0.10612410  0.18941957     0.96650
C180        C  0.29324176  0.20179717  0.14464930     0.96450
N181        N  0.38186576  0.22281288  0.08492525    -0.05840
N182        N  0.35283034  0.21195419  0.09307724    -0.57960
N183        N  0.41276207  0.28340375  0.06971279    -0.05520
N184        N  0.40351021  0.31071984  0.07054151    -0.60090
N185        N  0.38748241  0.26965352  0.06087213    -0.05120
N186        N  0.36044078  0.28741737  0.05567705    -0.57930
N187        N  0.40771146  0.23602483  0.09369655    -0.04790
N188        N  0.39627029  0.23453812  0.10802151    -0.60440
C189        C  0.36215907  0.21927182  0.10743440     0.96340
C190        C  0.37125454  0.31287174  0.06163499     0.96120
N191        N  0.03457508  0.27147894  0.06547193    -0.06020
N192        N  0.06285725  0.28879480  0.06099098    -0.58540
N193        N  0.50347888  0.23586445  0.09578440    -0.04140
N194        N  0.50988071  0.23328474  0.11051205    -0.59790
N195        N  0.03171827  0.22305143  0.08822134    -0.06050
N196        N  0.05754764  0.21147842  0.09751002    -0.58800
N197        N  0.50698325  0.28541203  0.07270481    -0.03790
N198        N  0.51639483  0.31299870  0.07331164    -0.59880
Mn199      Mn  0.45762989  0.26090556  0.08352077     1.18440
C200        C  0.05120609  0.31452088  0.06580322     0.98420
C201        C  0.04342739  0.21779173  0.11126862     0.99080
N202        N  0.39198804  0.21923489  0.03466581    -0.06070
N203        N  0.36516366  0.21468251  0.02385751    -0.62380
N204        N  0.41817104  0.16243058  0.05343607    -0.04880
N205        N  0.41015175  0.13461940  0.05365669    -0.63060
N206        N  0.38928313  0.17642602  0.05990527    -0.05580
N207        N  0.36155979  0.15896325  0.06470280    -0.62650
N208        N  0.42630176  0.21162591  0.02941577    -0.04480
N209        N  0.42459737  0.20553798  0.01504480    -0.63340
Mn210      Mn  0.38646159  0.22240206  0.05992962     1.10660
C211        C  0.38669343  0.20664301  0.01154677     0.99640
C212        C  0.37494007  0.13306651  0.06088045     0.99720
N213        N  0.03917587  0.17850513  0.06216465    -0.05590
N214        N  0.06758047  0.16125186  0.06674608    -0.60960
N215        N  0.51145760  0.21402317  0.03081545    -0.04910
N216        N  0.50428007  0.22611800  0.01752831    -0.57690
N217        N  0.03553004  0.23017695  0.03879297    -0.06220
N218        N  0.04423254  0.25379476  0.03108830    -0.60530
N219        N  0.51231852  0.16414116  0.05462181    -0.05200
N220        N  0.52176248  0.13687104  0.05368563    -0.57710
Mn221      Mn  0.03628258  0.22552691  0.06364844     1.20190
Mn222      Mn  0.46728465  0.18715433  0.04223022     1.10090
Cl223      Cl  0.46151301  0.22394272  0.06273317    -0.85680
C224        C  0.05598785  0.13539039  0.06147877     0.96650
C225        C  0.02499944  0.25071436  0.01771029     0.96450
N226        N  0.13433920  0.47244645  0.08522950    -0.05840
N227        N  0.10652655  0.46076497  0.09366843    -0.57960
N228        N  0.16467254  0.03345626  0.07022479    -0.05520
N229        N  0.15577652  0.06081563  0.07132144    -0.60090
N230        N  0.13875924  0.02006671  0.06149072    -0.05120
N231        N  0.11166653  0.03815164  0.05663984    -0.57930
N232        N  0.16087207  0.48536157  0.09379800    -0.04790
N233        N  0.15130611  0.48287152  0.10825647    -0.60440
C234        C  0.11758034  0.46728181  0.10795627     0.96340
C235        C  0.12306559  0.06341467  0.06269324     0.96120
N236        N  0.28631854  0.02075675  0.06540959    -0.06020
N237        N  0.31477406  0.03804083  0.06106063    -0.58540
N238        N  0.25540912  0.48446442  0.09548792    -0.04140
N239        N  0.26138049  0.48089228  0.11017777    -0.59790
N240        N  0.28320867  0.47149855  0.08778229    -0.06050
N241        N  0.30840993  0.45885797  0.09695337    -0.58800
N242        N  0.25898129  0.03464787  0.07279531    -0.03790
N243        N  0.26868749  0.06212047  0.07367773    -0.59880
Mn244      Mn  0.20989595  0.01027257  0.08358046     1.18440
C245        C  0.30341417  0.06365657  0.06615287     0.98420
C246        C  0.29421371  0.46462147  0.11078978     0.99080
N247        N  0.14105255  0.46968823  0.03492464    -0.06070
N248        N  0.11385798  0.46197063  0.02478046    -0.62380
N249        N  0.16713292  0.41294848  0.05281849    -0.04880
N250        N  0.15839030  0.38521958  0.05266971    -0.63060
N251        N  0.13904390  0.42686396  0.05981072    -0.05580
N252        N  0.11113648  0.40950138  0.06455848    -0.62650
N253        N  0.17563865  0.46392329  0.02926775    -0.04480
N254        N  0.17313707  0.45679349  0.01503209    -0.63340
Mn255      Mn  0.13712096  0.47271487  0.06023968     1.10660
C256        C  0.13491933  0.45439319  0.01228464     0.99640
C257        C  0.12354439  0.38366496  0.06018852     0.99720
N258        N  0.28862416  0.42792031  0.06123735    -0.05590
N259        N  0.31662181  0.41022238  0.06565995    -0.60960
N260        N  0.26094439  0.46465682  0.03038043    -0.04910
N261        N  0.25391462  0.47714630  0.01719493    -0.57690
N262        N  0.28571267  0.48019300  0.03839046    -0.06220
N263        N  0.29507829  0.50381124  0.03081258    -0.60530
N264        N  0.26131604  0.41409435  0.05363774    -0.05200
N265        N  0.27007225  0.38673319  0.05250441    -0.57710
Mn266      Mn  0.28709262  0.47481467  0.06318712     1.20190
Mn267      Mn  0.21639985  0.43799489  0.04164227     1.10090
Cl268      Cl  0.21229873  0.47391437  0.06252779    -0.85680
C269        C  0.30433597  0.38467576  0.06023403     0.96650
C270        C  0.27548879  0.50133844  0.01747722     0.96450
N271        N  0.98490632  0.33926264  0.96861192    -0.05840
N272        N  0.47572036  0.31563389  0.97623865    -0.57960
N273        N  0.00792410  0.40556968  0.95342531    -0.05520
N274        N  0.99940245  0.43299065  0.95466873    -0.60090
N275        N  0.98047617  0.39198070  0.94577166    -0.05120
N276        N  0.45252404  0.40991634  0.94149711    -0.57930
N277        N  0.01043691  0.35447659  0.97643187    -0.04790
N278        N  0.01821910  0.34182532  0.98951387    -0.60440
C279        C  0.99624364  0.31782020  0.98939939     0.96340
C280        C  0.46499647  0.43539502  0.94703133     0.96120
N281        N  0.12820647  0.39405143  0.94486438    -0.06020
N282        N  0.15550083  0.41191586  0.94015171    -0.58540
N283        N  0.09612440  0.35471404  0.97668674    -0.04140
N284        N  0.09824974  0.36627979  0.99014089    -0.59790
N285        N  0.13065096  0.35448099  0.97015700    -0.06050
N286        N  0.15394396  0.37234447  0.97782403    -0.58800
N287        N  0.10128310  0.40708990  0.95293343    -0.03790
N288        N  0.10998926  0.43473307  0.95375301    -0.59880
Mn289      Mn  0.05394385  0.38125948  0.96481510     1.18440
C290        C  0.14359916  0.43716391  0.94555196     0.98420
C291        C  0.13291733  0.37941392  0.99033390     0.99080
N292        N  0.98553617  0.34749820  0.91893574    -0.06070
N293        N  0.45966034  0.35905449  0.90960349    -0.62380
N294        N  0.01072596  0.28492449  0.93445595    -0.04880
N295        N  0.00079826  0.25750881  0.93361847    -0.63060
N296        N  0.98339015  0.29901023  0.94173337    -0.05580
N297        N  0.45482156  0.28188930  0.94612051    -0.62650
N298        N  0.01316656  0.33405443  0.91132524    -0.04480
N299        N  0.00651259  0.33632726  0.89662762    -0.63340
Mn300      Mn  0.98231585  0.34487738  0.94372773     1.10660
C301        C  0.47345684  0.35224951  0.89580947     0.99640
C302        C  0.96609232  0.25619737  0.94114070     0.99720
N303        N  0.13170721  0.30092171  0.94481379    -0.05590
N304        N  0.15928372  0.28337090  0.94985049    -0.60960
N305        N  0.10776019  0.33257075  0.91196187    -0.04910
N306        N  0.11838336  0.33170585  0.89756601    -0.57690
N307        N  0.13438582  0.34650226  0.91999952    -0.06220
N308        N  0.16337461  0.35552593  0.91122819    -0.60530
N309        N  0.10543073  0.28666137  0.93662958    -0.05200
N310        N  0.11457974  0.25927518  0.93609339    -0.57710
Mn311      Mn  0.13216664  0.34852679  0.94499378     1.20190
Mn312      Mn  0.05925749  0.30875683  0.92315404     1.10090
Cl313      Cl  0.05705035  0.34602274  0.94367857    -0.85680
C314        C  0.14783223  0.25753133  0.94448748     0.96650
C315        C  0.15285312  0.34639809  0.89727376     0.96450
N316        N  0.23519056  0.08967484  0.96860014    -0.05840
N317        N  0.22618257  0.06623378  0.97639635    -0.57960
N318        N  0.25731652  0.15548703  0.95291233    -0.05520
N319        N  0.24842270  0.18285446  0.95401203    -0.60090
N320        N  0.22994261  0.14152354  0.94540427    -0.05120
N321        N  0.20165540  0.15914852  0.94109873    -0.57930
N322        N  0.26080427  0.10512858  0.97626667    -0.04790
N323        N  0.26887693  0.09277062  0.98939858    -0.60440
C324        C  0.24692660  0.06874962  0.98947718     0.96340
C325        C  0.21387566  0.18482440  0.94644893     0.96120
N326        N  0.37735318  0.14468924  0.94408544    -0.06020
N327        N  0.40439434  0.16259792  0.93920624    -0.58540
N328        N  0.34679042  0.10627788  0.97644901    -0.04140
N329        N  0.34890186  0.11914083  0.98957288    -0.59790
N330        N  0.38107273  0.10627444  0.96970748    -0.06050
N331        N  0.40367001  0.12553424  0.97669886    -0.58800
N332        N  0.35049046  0.15776325  0.95216909    -0.03790
N333        N  0.35896652  0.18545124  0.95282881    -0.59880
Mn334      Mn  0.30385036  0.13198294  0.96442708     1.18440
C335        C  0.39235743  0.18789230  0.94450708     0.98420
C336        C  0.38279127  0.13330168  0.98910772     0.99080
N337        N  0.23529182  0.09648933  0.91892042    -0.06070
N338        N  0.20958003  0.10811039  0.90954904    -0.62380
N339        N  0.26130741  0.03441805  0.93487037    -0.04880
N340        N  0.25171738  0.00691025  0.93427970    -0.63060
N341        N  0.23386381  0.04852553  0.94207106    -0.05580
N342        N  0.20556640  0.03135066  0.94665172    -0.62650
N343        N  0.26302517  0.08306900  0.91136847    -0.04480
N344        N  0.25662509  0.08540592  0.89665653    -0.63340
Mn345      Mn  0.23226038  0.09441322  0.94369223     1.10660
C346        C  0.22357909  0.10133572  0.89578538     0.99640
C347        C  0.21710768  0.00558571  0.94187627     0.99720
N348        N  0.38228681  0.05153086  0.94490122    -0.05590
N349        N  0.41019984  0.03430801  0.94999899    -0.60960
N350        N  0.35739651  0.08217264  0.91184662    -0.04910
N351        N  0.36779308  0.08120857  0.89742607    -0.57690
N352        N  0.38386541  0.09648874  0.91974699    -0.06220
N353        N  0.41250732  0.10571736  0.91088320    -0.60530
N354        N  0.35608662  0.03686566  0.93688289    -0.05200
N355        N  0.36561576  0.00953175  0.93652912    -0.57710
Mn356      Mn  0.38200039  0.09917420  0.94464582     1.20190
Mn357      Mn  0.30943553  0.05834993  0.92333222     1.10090
Cl358      Cl  0.30689203  0.09610632  0.94376960    -0.85680
C359        C  0.39903506  0.00823337  0.94485529     0.96650
C360        C  0.40195750  0.09627858  0.89700390     0.96450
N361        N  0.14816016  0.09185714  0.41866048    -0.05840
N362        N  0.17293058  0.07908498  0.40958066    -0.57960
N363        N  0.12423489  0.15444648  0.43386231    -0.05520
N364        N  0.13393671  0.18195664  0.43317359    -0.60090
N365        N  0.15165807  0.14031822  0.44127520    -0.05120
N366        N  0.18015232  0.15747982  0.44581557    -0.57930
N367        N  0.12026759  0.10498763  0.41090888    -0.04790
N368        N  0.12575485  0.10143911  0.39624166    -0.60440
C369        C  0.15838059  0.08498012  0.39575090     0.96340
C370        C  0.16874756  0.18327917  0.44083267     0.96120
N371        N  0.50421135  0.13942434  0.44463446    -0.06020
N372        N  0.47713159  0.15734921  0.44944361    -0.58540
N373        N  0.02583165  0.10562867  0.41217821    -0.04140
N374        N  0.01660112  0.10303252  0.39764324    -0.59790
N375        N  0.49936136  0.09244607  0.42058943    -0.06050
N376        N  0.47194210  0.08049240  0.41194838    -0.58800
N377        N  0.03001518  0.15305936  0.43604367    -0.03790
N378        N  0.02108752  0.18042383  0.43500267    -0.59880
Mn379      Mn  0.07498176  0.13035998  0.42273928     1.18440
C380        C  0.48847177  0.18275910  0.44351926     0.98420
C381        C  0.48311924  0.08712522  0.39769998     0.99080
N382        N  0.15184287  0.09834315  0.46789703    -0.06070
N383        N  0.16136724  0.12163063  0.47566207    -0.62380
N384        N  0.12711368  0.03305329  0.45198029    -0.04880
N385        N  0.13608592  0.50571925  0.45304608    -0.63060
N386        N  0.15440478  0.04726103  0.44466361    -0.05580
N387        N  0.18263434  0.02983769  0.44035547    -0.62650
N388        N  0.12717909  0.08247762  0.47570695    -0.04480
N389        N  0.12035227  0.09445946  0.48895822    -0.63340
Mn390      Mn  0.15260008  0.09422582  0.44314670     1.10660
C391        C  0.14196712  0.11864560  0.48890636     0.99640
C392        C  0.17045221  0.50406346  0.44555475     0.99720
N393        N  0.50452186  0.04612361  0.44585905    -0.05590
N394        N  0.47652428  0.02892478  0.44094351    -0.60960
N395        N  0.04182659  0.08114172  0.47655261    -0.04910
N396        N  0.04002624  0.07487769  0.49091493    -0.57690
N397        N  0.50749979  0.08865395  0.47106225    -0.06220
N398        N  0.48059185  0.08370562  0.48168625    -0.60530
N399        N  0.03302518  0.03187612  0.45260903    -0.05200
N400        N  0.02446123  0.50413503  0.45245466    -0.57710
Mn401      Mn  0.50257566  0.09209566  0.44568402     1.20190
Mn402      Mn  0.08245752  0.05624281  0.46407309     1.10090
Cl403      Cl  0.07775660  0.09327156  0.44358278    -0.85680
C404        C  0.48931103  0.50288963  0.44498474     0.96650
C405        C  0.50207638  0.07564072  0.49415442     0.96450
N406        N  0.39364295  0.34168023  0.41688526    -0.05840
N407        N  0.41537095  0.32789055  0.40704965    -0.57960
N408        N  0.37247910  0.40465831  0.43282325    -0.05520
N409        N  0.38172458  0.43226418  0.43223582    -0.60090
N410        N  0.40105643  0.39046769  0.43949012    -0.05120
N411        N  0.42993037  0.40764579  0.44362862    -0.57930
N412        N  0.36448037  0.35500283  0.40997232    -0.04790
N413        N  0.36584297  0.35054687  0.39523159    -0.60440
C414        C  0.39740627  0.33336801  0.39370538     0.96340
C415        C  0.41756975  0.43353260  0.43916112     0.96120
N416        N  0.25412341  0.38937960  0.44608656    -0.06020
N417        N  0.22742384  0.40723173  0.45126545    -0.58540
N418        N  0.27163146  0.35563828  0.41335789    -0.04140
N419        N  0.26096617  0.35261741  0.39900621    -0.59790
N420        N  0.24652060  0.34225348  0.42225771    -0.06050
N421        N  0.21852474  0.32974531  0.41415401    -0.58800
N422        N  0.27884270  0.40305980  0.43705782    -0.03790
N423        N  0.26956865  0.43034956  0.43606722    -0.59880
Mn424      Mn  0.32174074  0.38048474  0.42284823     1.18440
C425        C  0.23792381  0.43262446  0.44509445     0.98420
C426        C  0.22802918  0.33624112  0.39972102     0.99080
N427        N  0.40412334  0.34922263  0.46633047    -0.06070
N428        N  0.41331912  0.37302266  0.47375344    -0.62380
N429        N  0.37831628  0.28335422  0.45117979    -0.04880
N430        N  0.38775296  0.25610475  0.45229825    -0.63060
N431        N  0.40440688  0.29747759  0.44320075    -0.05580
N432        N  0.43225339  0.28006269  0.43851264    -0.62650
N433        N  0.38083901  0.33317253  0.47467533    -0.04480
N434        N  0.37488328  0.34546998  0.48791092    -0.63340
Mn435      Mn  0.40211223  0.34443863  0.44144750     1.10660
C436        C  0.39535703  0.37012372  0.48732521     0.99640
C437        C  0.42109253  0.25437288  0.44416020     0.99720
N438        N  0.25510553  0.29602696  0.44730704    -0.05590
N439        N  0.22686303  0.27869334  0.44274846    -0.60960
N440        N  0.29555194  0.33106440  0.47733999    -0.04910
N441        N  0.29484686  0.32409304  0.49164122    -0.57690
N442        N  0.26071600  0.33860347  0.47234865    -0.06220
N443        N  0.23468894  0.33300056  0.48318758    -0.60530
N444        N  0.28453281  0.28188278  0.45349979    -0.05200
N445        N  0.27640830  0.25407725  0.45331162    -0.57710
Mn446      Mn  0.25284870  0.34201984  0.44716687     1.20190
Mn447      Mn  0.33504129  0.30649842  0.46403986     1.10090
Cl448      Cl  0.32755261  0.34339607  0.44359200    -0.85680
C449        C  0.24047778  0.25269475  0.44642620     0.96650
C450        C  0.25709773  0.32442089  0.49528583     0.96450
N451        N  0.49817865  0.47468743  0.53622229    -0.05840
N452        N  0.02026285  0.49445671  0.52940793    -0.57960
N453        N  0.46684036  0.02546901  0.55363245    -0.05520
N454        N  0.47527649  0.05315513  0.55288815    -0.60090
N455        N  0.49376692  0.01243641  0.56188484    -0.05120
N456        N  0.02078039  0.03036919  0.56681396    -0.57930
N457        N  0.46393373  0.47437260  0.52929172    -0.04790
N458        N  0.46576033  0.48753204  0.51620072    -0.60440
C459        C  0.99924695  0.50217511  0.51688257     0.96340
C460        C  0.50866531  0.05563528  0.56136107     0.96120
N461        N  0.34635882  0.00848216  0.55959025    -0.06020
N462        N  0.31811925  0.02591991  0.56396692    -0.58540
N463        N  0.37816679  0.47278973  0.52885968    -0.04140
N464        N  0.38669061  0.46084395  0.51574947    -0.59790
N465        N  0.35284998  0.45686362  0.53631581    -0.06050
N466        N  0.34455249  0.43345753  0.52840555    -0.58800
N467        N  0.37365973  0.02277172  0.55230885    -0.03790
N468        N  0.36475202  0.05020022  0.55142566    -0.59880
Mn469      Mn  0.42059624  0.99961175  0.54108823     1.18440
C470        C  0.33023532  0.05184865  0.55887670     0.98420
C471        C  0.36538789  0.43653357  0.51545909     0.99080
N472        N  0.50061082  0.46400126  0.58621684    -0.06070
N473        N  0.02871420  0.97375066  0.59527116    -0.62380
N474        N  0.47369898  0.40442502  0.56894173    -0.04880
N475        N  0.48324531  0.37708508  0.56923440    -0.63060
N476        N  0.99976695  0.41930865  0.56103806    -0.05580
N477        N  0.02763505  0.40220479  0.55597491    -0.62650
N478        N  0.47423884  0.44946789  0.59398475    -0.04480
N479        N  0.48419124  0.44886206  0.60851168    -0.63340
Mn480      Mn  0.99900284  0.46703527  0.56129562     1.10660
C481        C  0.01797167  0.46437900  0.60912485     0.99640
C482        C  0.01656622  0.37598951  0.56101521     0.99720
N483        N  0.35169749  0.41541372  0.56288036    -0.05590
N484        N  0.32350160  0.39811204  0.55827395    -0.60960
N485        N  0.37966540  0.44969547  0.59385554    -0.04910
N486        N  0.37311240  0.45205584  0.60852257    -0.57690
N487        N  0.35189664  0.46300917  0.58606501    -0.06220
N488        N  0.32604187  0.47457868  0.59522845    -0.60530
N489        N  0.37911138  0.40145193  0.57037258    -0.05200
N490        N  0.36961049  0.37395990  0.57114600    -0.57710
Mn491      Mn  0.34939495  0.46132564  0.56122441     1.20190
Mn492      Mn  0.42669344  0.42541550  0.58224115     1.10090
Cl493      Cl  0.42402695  0.46342858  0.56193110    -0.85680
C494        C  0.33512877  0.37245433  0.56333346     0.96650
C495        C  0.33991115  0.46784470  0.60911444     0.96450
N496        N  0.24817672  0.22265444  0.53644310    -0.05840
N497        N  0.27204092  0.24104864  0.52948001    -0.57960
N498        N  0.21797346  0.27475064  0.55345003    -0.05520
N499        N  0.22699409  0.30230312  0.55246153    -0.60090
N500        N  0.24477087  0.26159062  0.56171285    -0.05120
N501        N  0.27229017  0.27934721  0.56641257    -0.57930
N502        N  0.21398227  0.22365591  0.52946089    -0.04790
N503        N  0.21696754  0.23658627  0.51634131    -0.60440
C504        C  0.25176346  0.24955284  0.51693916     0.96340
C505        C  0.26061150  0.30460688  0.56079578     0.96120
N506        N  0.09728316  0.25936602  0.55988864    -0.06020
N507        N  0.06936100  0.27723778  0.56407757    -0.58540
N508        N  0.12773943  0.22253205  0.52937154    -0.04140
N509        N  0.13569773  0.20995662  0.51637976    -0.59790
N510        N  0.10196722  0.20731894  0.53702559    -0.06050
N511        N  0.09269415  0.18383927  0.52936316    -0.58800
N512        N  0.12474562  0.27311751  0.55240370    -0.03790
N513        N  0.11627046  0.30057666  0.55120751    -0.59880
Mn514      Mn  0.17104788  0.24927150  0.54120233     1.18440
C515        C  0.08186861  0.30284435  0.55867411     0.98420
C516        C  0.11346436  0.18607499  0.51637792     0.99080
N517        N  0.25064717  0.21378957  0.58644934    -0.06070
N518        N  0.27899034  0.22353773  0.59539746    -0.62380
N519        N  0.22253483  0.15389983  0.56964643    -0.04880
N520        N  0.23162340  0.12646511  0.57007212    -0.63060
N521        N  0.24877765  0.16836138  0.56162767    -0.05580
N522        N  0.27626224  0.15092091  0.55659408    -0.62650
N523        N  0.22411209  0.19970848  0.59434958    -0.04480
N524        N  0.23414674  0.19942234  0.60886910    -0.63340
Mn525      Mn  0.24889658  0.21600024  0.56153764     1.10660
C526        C  0.26818625  0.21465146  0.60932642     0.99640
C527        C  0.26483653  0.12491391  0.56179179     0.99720
N528        N  0.10047080  0.16629314  0.56377479    -0.05590
N529        N  0.07188379  0.14922974  0.55927602    -0.60960
N530        N  0.12980807  0.20088524  0.59441268    -0.04910
N531        N  0.12332156  0.20333708  0.60907659    -0.57690
N532        N  0.10223998  0.21439709  0.58662800    -0.06220
N533        N  0.07657430  0.22619479  0.59577909    -0.60530
N534        N  0.12777416  0.15212782  0.57121808    -0.05200
N535        N  0.11779462  0.12472414  0.57206860    -0.57710
Mn536      Mn  0.09919709  0.21220681  0.56187057     1.20190
Mn537      Mn  0.17606502  0.17586285  0.58282512     1.10090
Cl538      Cl  0.17382416  0.21343911  0.56209045    -0.85680
C539        C  0.08311807  0.12349927  0.56436091     0.96650
C540        C  0.09039195  0.21941769  0.60965956     0.96450
N541        N  0.35849415  0.22396706  0.66941950    -0.05840
N542        N  0.32927328  0.23122526  0.66023706    -0.57960
N543        N  0.38619057  0.16536732  0.68715543    -0.05520
N544        N  0.37786687  0.13780512  0.68709665    -0.60090
N545        N  0.35940530  0.17967108  0.69482561    -0.05120
N546        N  0.33215216  0.16187908  0.69996433    -0.57930
N547        N  0.38558951  0.20986783  0.66194501    -0.04790
N548        N  0.37503456  0.20710564  0.64756863    -0.60440
C549        C  0.34018902  0.22088571  0.64664691     0.96340
C550        C  0.34451920  0.13595377  0.69520757     0.96120
N551        N  0.00715168  0.17645558  0.69347784    -0.06020
N552        N  0.03613055  0.15942922  0.69747234    -0.58540
N553        N  0.48062104  0.21064225  0.66234929    -0.04140
N554        N  0.48942149  0.21070507  0.64781798    -0.59790
N555        N  0.00848571  0.22384683  0.67019199    -0.06050
N556        N  0.03664168  0.23310507  0.66117843    -0.58800
N557        N  0.47999829  0.16257989  0.68577982    -0.03790
N558        N  0.49034029  0.13547443  0.68424424    -0.59880
Mn559      Mn  0.43292877  0.18662221  0.67394879     1.18440
C560        C  0.02511348  0.13400209  0.69182755     0.98420
C561        C  0.02398518  0.22514385  0.64730829     0.99080
N562        N  0.35785999  0.23400343  0.71968144    -0.06070
N563        N  0.32861092  0.24336391  0.72836025    -0.62380
N564        N  0.39180784  0.28709774  0.70104667    -0.04880
N565        N  0.38379921  0.31478213  0.70125228    -0.63060
N566        N  0.36405872  0.27335115  0.69345669    -0.05580
N567        N  0.33710005  0.29100862  0.68832335    -0.62650
N568        N  0.39122413  0.24078840  0.72632754    -0.04480
N569        N  0.38568592  0.25111337  0.73986968    -0.63340
Mn570      Mn  0.35889291  0.22731718  0.69439209     1.10660
C571        C  0.34694363  0.25333079  0.74114629     0.99640
C572        C  0.34997772  0.31668618  0.69304175     0.99720
N573        N  0.01269271  0.26934081  0.69639148    -0.05590
N574        N  0.04185085  0.28652607  0.69232739    -0.60960
N575        N  0.47663930  0.23427265  0.72699495    -0.04910
N576        N  0.46311695  0.22084311  0.73912515    -0.57690
N577        N  0.00177951  0.21787323  0.71981435    -0.06220
N578        N  0.00458946  0.19289043  0.72691174    -0.60530
N579        N  0.48508726  0.28390073  0.70312539    -0.05200
N580        N  0.49459644  0.31122748  0.70395524    -0.57710
Mn581      Mn  0.00889590  0.22241468  0.69505410     1.20190
Mn582      Mn  0.43684507  0.26226875  0.71425362     1.10090
Cl583      Cl  0.43425860  0.22477063  0.69418485    -0.85680
C584        C  0.02979671  0.31253104  0.69704967     0.96650
C585        C  0.98049229  0.19515285  0.73896174     0.96450
N586        N  0.14011972  0.10107261  0.83512500    -0.05840
N587        N  0.16850468  0.11121426  0.84386898    -0.57960
N588        N  0.11021576  0.03946893  0.82045589    -0.05520
N589        N  0.12075257  0.01241481  0.82223866    -0.60090
N590        N  0.13663366  0.05309398  0.81234277    -0.05120
N591        N  0.16524952  0.03595328  0.80831629    -0.57930
N592        N  0.11278219  0.08823290  0.84331682    -0.04790
N593        N  0.12218235  0.08942304  0.85782044    -0.60440
C594        C  0.15655892  0.10413488  0.85793076     0.96340
C595        C  0.15482359  0.01071546  0.81437449     0.96120
N596        N  0.48906866  0.05677565  0.81194515    -0.06020
N597        N  0.46168124  0.03904669  0.80679270    -0.58540
N598        N  0.01767190  0.08774646  0.84438474    -0.04140
N599        N  0.00807803  0.08567236  0.85885985    -0.59790
N600        N  0.49029826  0.10184021  0.83685845    -0.06050
N601        N  0.46189911  0.10977689  0.84608472    -0.58800
N602        N  0.01611799  0.04242801  0.81964251    -0.03790
N603        N  0.00775849  0.01484255  0.81972797    -0.59880
Mn604      Mn  0.06410611  0.06389562  0.83237198     1.18440
C605        C  0.47409992  0.01308256  0.81160410     0.98420
C606        C  0.47355333  0.09986733  0.85976328     0.99080
N607        N  0.12962980  0.09389508  0.78558694    -0.06070
N608        N  0.13189035  0.06886573  0.77859331    -0.62380
N609        N  0.11520345  0.16056446  0.80186700    -0.04880
N610        N  0.12475944  0.18792347  0.80108956    -0.63060
N611        N  0.14305341  0.14585518  0.80854051    -0.05580
N612        N  0.17239342  0.16292465  0.81263742    -0.62650
N613        N  0.10415211  0.11033811  0.77843867    -0.04480
N614        N  0.08978099  0.09688740  0.76642921    -0.63340
Mn615      Mn  0.13865721  0.09897582  0.81027234     1.10660
C616        C  0.10708420  0.07114201  0.76661292     0.99640
C617        C  0.16029690  0.18904834  0.80796146     0.99720
N618        N  0.49440688  0.15050984  0.81224244    -0.05590
N619        N  0.46780871  0.16830878  0.81731946    -0.60960
N620        N  0.01899209  0.11739678  0.77973771    -0.04910
N621        N  0.01219744  0.12667448  0.76601221    -0.57690
N622        N  0.48639156  0.10990732  0.78658262    -0.06220
N623        N  0.45614263  0.11740386  0.77774386    -0.60530
N624        N  0.02180183  0.16409405  0.80446314    -0.05200
N625        N  0.01383005  0.19179039  0.80403878    -0.57710
Mn626      Mn  0.48894983  0.10438939  0.81185743     1.20190
Mn627      Mn  0.06576760  0.13887161  0.79125395     1.10090
Cl628      Cl  0.06407168  0.10165607  0.81183442    -0.85680
C629        C  0.48046570  0.19388855  0.81234264     0.96650
C630        C  0.47326321  0.12717453  0.76473666     0.96450
N631        N  0.10828651  0.47377974  0.66926967    -0.05840
N632        N  0.07896248  0.48095281  0.66011362    -0.57960
N633        N  0.13624830  0.41521763  0.68700496    -0.05520
N634        N  0.12798352  0.38764395  0.68700126    -0.60090
N635        N  0.10950223  0.42952420  0.69469119    -0.05120
N636        N  0.08235268  0.41173575  0.69990470    -0.57930
N637        N  0.13535428  0.45968316  0.66177467    -0.04790
N638        N  0.12468453  0.45685324  0.64741434    -0.60440
C639        C  0.08979058  0.47057197  0.64651903     0.96340
C640        C  0.09472347  0.38580561  0.69516929     0.96120
N641        N  0.25727661  0.42648689  0.69315551    -0.06020
N642        N  0.28630768  0.40952682  0.69716442    -0.58540
N643        N  0.23043458  0.46048328  0.66203493    -0.04140
N644        N  0.23925884  0.46019974  0.64750680    -0.59790
N645        N  0.25837448  0.47375937  0.66981011    -0.06050
N646        N  0.28662081  0.48269608  0.66073792    -0.58800
N647        N  0.23008997  0.41252929  0.68551844    -0.03790
N648        N  0.24047497  0.38541944  0.68403365    -0.59880
Mn649      Mn  0.18285001  0.43649278  0.67372979     1.18440
C650        C  0.27530738  0.38404994  0.69158752     0.98420
C651        C  0.27392399  0.47448592  0.64690517     0.99080
N652        N  0.10806802  0.48364842  0.71955356    -0.06070
N653        N  0.07879291  0.49245183  0.72838148    -0.62380
N654        N  0.14172558  0.03698185  0.70087865    -0.04880
N655        N  0.13365839  0.06465228  0.70114135    -0.63060
N656        N  0.11389796  0.02322714  0.69333258    -0.05580
N657        N  0.08681999  0.04088313  0.68828584    -0.62650
N658        N  0.14141884  0.49067833  0.72613243    -0.04480
N659        N  0.13595863  0.50072585  0.73973549    -0.63340
Mn660      Mn  0.10887085  0.47713264  0.69425465     1.10660
C661        C  0.09719675  0.50239566  0.74115940     0.99640
C662        C  0.09971512  0.06655885  0.69301101     0.99720
N663        N  0.26260457  0.01938587  0.69607144    -0.05590
N664        N  0.29173697  0.03663061  0.69203908    -0.60960
N665        N  0.22680646  0.48415866  0.72671640    -0.04910
N666        N  0.21330002  0.47067371  0.73883476    -0.57690
N667        N  0.25188237  0.46777139  0.71949402    -0.06220
N668        N  0.25462928  0.44273373  0.72655090    -0.60530
N669        N  0.23500952  0.03387978  0.70285304    -0.05200
N670        N  0.24448540  0.06120436  0.70373952    -0.57710
Mn671      Mn  0.25891192  0.47242150  0.69471266     1.20190
Mn672      Mn  0.18689209  0.01219526  0.71401790     1.10090
Cl673      Cl  0.18425544  0.47468717  0.69394282    -0.85680
C674        C  0.27965796  0.06259662  0.69682290     0.96650
C675        C  0.23057358  0.44494907  0.73861940     0.96450
N676        N  0.39003602  0.35101011  0.83512307    -0.05840
N677        N  0.41817603  0.36132490  0.84392633    -0.57960
N678        N  0.36072759  0.28954854  0.82008145    -0.05520
N679        N  0.37147349  0.26249601  0.82166710    -0.60090
N680        N  0.38702546  0.30347637  0.81205134    -0.05120
N681        N  0.41576048  0.28655274  0.80789180    -0.57930
N682        N  0.36282694  0.33787302  0.84324664    -0.04790
N683        N  0.37208188  0.33902076  0.85776786    -0.60440
C684        C  0.40623531  0.35401588  0.85795571     0.96340
C685        C  0.40553773  0.26112332  0.81377523     0.96120
N686        N  0.23939898  0.30637698  0.81165712    -0.06020
N687        N  0.21215335  0.28860681  0.80643048    -0.58540
N688        N  0.26770888  0.33695161  0.84429510    -0.04140
N689        N  0.25845457  0.33495854  0.85881021    -0.59790
N690        N  0.24017068  0.35101366  0.83683914    -0.06050
N691        N  0.21199334  0.35901190  0.84615704    -0.58800
N692        N  0.26656648  0.29202893  0.81929441    -0.03790
N693        N  0.25842443  0.26440632  0.81925836    -0.59880
Mn694      Mn  0.31436734  0.31350174  0.83215322     1.18440
C695        C  0.22478012  0.26261909  0.81112435     0.98420
C696        C  0.22394298  0.34915637  0.85981581     0.99080
N697        N  0.37973065  0.34483564  0.78554497    -0.06070
N698        N  0.38217462  0.31996645  0.77840408    -0.62380
N699        N  0.36459166  0.41105359  0.80225750    -0.04880
N700        N  0.37392447  0.43846209  0.80162009    -0.63060
N701        N  0.39259090  0.39633248  0.80882623    -0.05580
N702        N  0.42181515  0.41344098  0.81299421    -0.62650
N703        N  0.35414695  0.36133088  0.77849023    -0.04480
N704        N  0.33990431  0.34807923  0.76639530    -0.63340
Mn705      Mn  0.38863070  0.34940841  0.81026314     1.10660
C706        C  0.35738219  0.32239574  0.76642789     0.99640
C707        C  0.40947634  0.43960006  0.80847699     0.99720
N708        N  0.24380543  0.40012106  0.81247912    -0.05590
N709        N  0.21705818  0.41767472  0.81767783    -0.60960
N710        N  0.26899591  0.36789738  0.77981570    -0.04910
N711        N  0.26239779  0.37723524  0.76609146    -0.57690
N712        N  0.23637809  0.36002743  0.78652949    -0.06220
N713        N  0.20620488  0.36729001  0.77758484    -0.60530
N714        N  0.27115827  0.41402050  0.80483370    -0.05200
N715        N  0.26300315  0.44169215  0.80462365    -0.57710
Mn716      Mn  0.23880070  0.35399709  0.81181711     1.20190
Mn717      Mn  0.31543687  0.38935273  0.79149035     1.10090
Cl718      Cl  0.31399218  0.35166035  0.81182318    -0.85680
C719        C  0.22957852  0.44343471  0.81291629     0.96650
C720        C  0.22350729  0.37731984  0.76465569     0.96450
C721        C  0.21563987  0.42058960  0.74715463    -0.12990
C722        C  0.20891879  0.39947631  0.75480708    -0.14550
C723        C  0.08438058  0.02558734  0.75065278    -0.12990
C724        C  0.09180296  0.04681075  0.75811078    -0.14550
C725        C  0.45153543  0.48718040  0.81012823    -0.12990
C726        C  0.43270805  0.46527431  0.80950812    -0.14550
C727        C  0.20246319  0.23660664  0.80958334    -0.12990
C728        C  0.18363841  0.21469162  0.80895093    -0.14550
C729        C  0.18082421  0.48677940  0.81438333    -0.12990
C730        C  0.20486875  0.46802246  0.81381669    -0.14550
C731        C  0.45591770  0.21858893  0.81308886    -0.12990
C732        C  0.43185026  0.23733606  0.81365493    -0.14550
C733        C  0.33453638  0.27685375  0.75046653    -0.12990
C734        C  0.34208996  0.29813860  0.75786199    -0.14550
C735        C  0.05328219  0.33805825  0.69649081    -0.12990
C736        C  0.07211097  0.35995123  0.69634921    -0.14550
C737        C  0.32186281  0.11009384  0.69629751    -0.12990
C738        C  0.30310876  0.08815840  0.69634606    -0.14550
C739        C  0.32534963  0.34133242  0.69220799    -0.12990
C740        C  0.30137419  0.36014563  0.69166962    -0.14550
C741        C  0.07505698  0.09120525  0.69227276    -0.12990
C742        C  0.05114948  0.11007429  0.69183112    -0.14550
C743        C  0.45882866  0.14959797  0.75504066    -0.12990
C744        C  0.96554512  0.17080887  0.74747853    -0.14550
C745        C  0.06868475  0.22445910  0.62317323    -0.12990
C746        C  0.04826710  0.22632597  0.63417579    -0.14550
C747        C  0.29269844  0.21806741  0.62265955    -0.12990
C748        C  0.31451394  0.22007832  0.63352371    -0.14550
C749        C  0.31839025  0.47305804  0.62267814    -0.12990
C750        C  0.29819797  0.47524069  0.63373944    -0.14550
C751        C  0.04230952  0.46769893  0.62251846    -0.12990
C752        C  0.06405405  0.46971412  0.63340749    -0.14550
C753        C  0.05930418  0.32884825  0.55932637    -0.12990
C754        C  0.04012356  0.35055124  0.55973151    -0.14550
C755        C  0.28796964  0.09926341  0.56048078    -0.12990
C756        C  0.30727698  0.07763527  0.55986500    -0.14550
C757        C  0.03337520  0.08041288  0.56224921    -0.12990
C758        C  0.05751699  0.09920811  0.56339808    -0.14550
C759        C  0.30980483  0.34802586  0.56244184    -0.12990
C760        C  0.28569839  0.32919028  0.56145840    -0.14550
C761        C  0.24708116  0.30154296  0.50533978    -0.12990
C762        C  0.25220633  0.27839409  0.51119948    -0.14550
C763        C  0.38615637  0.39387891  0.49723669    -0.12990
C764        C  0.37520393  0.41313125  0.50540105    -0.14550
C765        C  0.99752530  0.03087110  0.51089774    -0.12990
C766        C  0.49140951  0.05349576  0.50457912    -0.14550
C767        C  0.46500529  0.20809482  0.44393059    -0.12990
C768        C  0.44498937  0.22925654  0.44375462    -0.14550
C769        C  0.21417279  0.45775673  0.44563193    -0.12990
C770        C  0.19413251  0.47887493  0.44537586    -0.14550
C771        C  0.44200500  0.45853376  0.44084145    -0.12990
C772        C  0.46520867  0.47782895  0.44287407    -0.14550
C773        C  0.19354455  0.20810515  0.44245664    -0.12990
C774        C  0.21671630  0.22744625  0.44440693    -0.14550
C775        C  0.13289257  0.14233996  0.49879454    -0.12990
C776        C  0.12244828  0.16207226  0.50668421    -0.14550
C777        C  0.42691968  0.09876964  0.88383291    -0.12990
C778        C  0.44866501  0.09992371  0.87300691    -0.14550
C779        C  0.18115268  0.10673179  0.87103089    -0.12990
C780        C  0.20171245  0.10579848  0.88213216    -0.14550
C781        C  0.17801348  0.34871314  0.88412575    -0.12990
C782        C  0.19951719  0.34955750  0.87320738    -0.14550
C783        C  0.45120990  0.35636372  0.88220835    -0.12990
C784        C  0.43059419  0.35692049  0.87111034    -0.14550
C785        C  0.42276343  0.48286274  0.94605537    -0.12990
C786        C  0.44223146  0.46130010  0.94641850    -0.14550
C787        C  0.17124447  0.23202801  0.94553210    -0.12990
C788        C  0.19073362  0.21050104  0.94581588    -0.14550
C789        C  0.41687381  0.21278545  0.94346514    -0.12990
C790        C  0.44074072  0.23175081  0.94219974    -0.14550
C791        C  0.16816563  0.46205371  0.94453167    -0.12990
C792        C  0.19199265  0.48103062  0.94315418    -0.14550
C793        C  0.25608395  0.04493753  0.99945810    -0.12990
C794        C  0.26654657  0.02528205  0.00755208    -0.14550
C795        C  0.12613125  0.43033864  0.00285715    -0.12990
C796        C  0.13250732  0.40757271  0.99685857    -0.14550
C797        C  0.38159120  0.16197947  0.99496577    -0.12990
C798        C  0.37579923  0.18467170  0.00111782    -0.14550
C799        C  0.07987204  0.11018430  0.06208405    -0.12990
C800        C  0.09977812  0.08892129  0.06212403    -0.14550
C801        C  0.34762526  0.33809537  0.06079237    -0.12990
C802        C  0.32765066  0.35926978  0.06068691    -0.14550
C803        C  0.35126475  0.10783508  0.06286967    -0.12990
C804        C  0.32813056  0.08849404  0.06472302    -0.14550
C805        C  0.09929884  0.35859392  0.06210299    -0.12990
C806        C  0.07585025  0.33944037  0.06411592    -0.14550
C807        C  0.01558621  0.27432015  0.00757303    -0.12990
C808        C  0.00509460  0.29384380  0.99936259    -0.14550
C809        C  0.06504756  0.21182366  0.12479957    -0.12990
C810        C  0.08651377  0.20670929  0.13530476    -0.14550
C811        C  0.33707189  0.21299569  0.12033699    -0.12990
C812        C  0.31578414  0.20765744  0.13102769    -0.14550
C813        C  0.33729420  0.45444657  0.13494625    -0.12990
C814        C  0.31566836  0.45819298  0.12431842    -0.14550
C815        C  0.07315785  0.45621741  0.13191443    -0.12990
C816        C  0.09409509  0.46063040  0.12110004    -0.14550
C817        C  0.09600680  0.08100571  0.19724178    -0.12990
C818        C  0.07728998  0.05873911  0.19738871    -0.14550
C819        C  0.33953641  0.33422743  0.19274000    -0.12990
C820        C  0.32101604  0.31208624  0.19266502    -0.14550
C821        C  0.34364683  0.06239462  0.19078268    -0.12990
C822        C  0.32007675  0.08137264  0.18991265    -0.14550
C823        C  0.07043040  0.33013577  0.19542905    -0.12990
C824        C  0.09563070  0.31223503  0.19632721    -0.14550
C825        C  0.41449586  0.32604374  0.37956609    -0.12990
C826        C  0.43578743  0.32221032  0.36900262    -0.14550
C827        C  0.18097519  0.32429672  0.37650474    -0.12990
C828        C  0.20371402  0.32881435  0.38684041    -0.14550
C829        C  0.11912932  0.28774359  0.25000464    -0.12990
C830        C  0.11376156  0.26522618  0.24334564    -0.14550
C831        C  0.04163786  0.34767851  0.24648361    -0.12990
C832        C  0.05171870  0.36939648  0.23977982    -0.14550
C833        C  0.46024334  0.07988172  0.38430880    -0.12990
C834        C  0.43940140  0.07503993  0.37337766    -0.14550
C835        C  0.20120439  0.07450228  0.37200173    -0.12990
C836        C  0.17943106  0.07841675  0.38238075    -0.14550
C837        C  0.26240985  0.12199470  0.25603071    -0.12990
C838        C  0.26768660  0.14275125  0.24796076    -0.14550
C839        C  0.43682826  0.18149247  0.31102420    -0.12990
C840        C  0.45647204  0.20312510  0.31138200    -0.14550
C841        C  0.17871492  0.43679466  0.31560823    -0.12990
C842        C  0.19807328  0.45846985  0.31463028    -0.14550
C843        C  0.21040166  0.18993428  0.31801688    -0.12990
C844        C  0.18731115  0.20942327  0.31885235    -0.14550
C845        C  0.44331345  0.42858192  0.31272435    -0.12990
C846        C  0.41961519  0.44788557  0.31225407    -0.14550
C847        C  0.42290860  0.02021869  0.25642514    -0.12990
C848        C  0.42090776  0.99884019  0.24872384    -0.14550
N849        N  0.24683712  0.57802295  0.28752058    -0.05840
N850        N  0.23648372  0.60072894  0.27947771    -0.57960
N851        N  0.26357151  0.51242963  0.30385496    -0.05520
N852        N  0.25437573  0.98496129  0.30421223    -0.60090
N853        N  0.23723557  0.52756134  0.31101304    -0.05120
N854        N  0.20936640  0.51066090  0.31651894    -0.57930
N855        N  0.27271269  0.56273917  0.28008605    -0.04790
N856        N  0.28028236  0.57498131  0.26685611    -0.60440
C857        C  0.25700567  0.59834864  0.26651485     0.96340
C858        C  0.22071671  0.98419464  0.31222859     0.96120
N859        N  0.38547133  0.51810943  0.31268140    -0.06020
N860        N  0.41150389  0.99898617  0.31716714    -0.58540
N861        N  0.36049838  0.55265305  0.28035337    -0.04140
N862        N  0.36760530  0.54251525  0.26684724    -0.59790
N863        N  0.39329690  0.56006950  0.28734051    -0.06050
N864        N  0.42358455  0.55254696  0.27876022    -0.58800
N865        N  0.35671637  0.00584530  0.30488376    -0.03790
N866        N  0.36301399  0.97792184  0.30396465    -0.59880
Mn867      Mn  0.31268599  0.53293146  0.29225570     1.18440
C868        C  0.39696502  0.97401597  0.31189035     0.98420
C869        C  0.40672670  0.54219913  0.26584847     0.99080
N870        N  0.24403490  0.57284931  0.33682352    -0.06070
N871        N  0.21466277  0.56519344  0.34561478    -0.62380
N872        N  0.27670105  0.63338840  0.32164911    -0.04880
N873        N  0.26903341  0.66078838  0.32381160    -0.63060
N874        N  0.24787428  0.62118075  0.31400692    -0.05580
N875        N  0.22017839  0.63996741  0.31075767    -0.62650
N876        N  0.27255034  0.58502074  0.34475220    -0.04480
N877        N  0.26284540  0.58594112  0.35918370    -0.63340
Mn878      Mn  0.24288611  0.57454953  0.31222378     1.10660
C879        C  0.22711654  0.57304079  0.35947441     0.99640
C880        C  0.23402473  0.66458907  0.31673744     0.99720
N881        N  0.39593883  0.61258325  0.31263888    -0.05590
N882        N  0.42401294  0.62970657  0.30746047    -0.60960
N883        N  0.36729356  0.58241485  0.34517289    -0.04910
N884        N  0.37842583  0.58608303  0.35941065    -0.57690
N885        N  0.39383961  0.56755684  0.33779201    -0.06220
N886        N  0.42343715  0.56089942  0.34698109    -0.60530
N887        N  0.36992609  0.62757790  0.32030940    -0.05200
N888        N  0.37961562  0.65493707  0.32035931    -0.57710
Mn889      Mn  0.39308616  0.56479141  0.31261772     1.20190
Mn890      Mn  0.32174873  0.60739678  0.33325128     1.10090
Cl891      Cl  0.31796961  0.56981812  0.31281745    -0.85680
C892        C  0.41300754  0.65600376  0.31221469     0.96650
C893        C  0.41309140  0.57221815  0.36046512     0.96290
N894        N  0.02227385  0.88173817  0.30710554    -0.05840
N895        N  0.49394144  0.89771176  0.30122427    -0.57960
N896        N  0.11129051  0.88206958  0.32315223    -0.05520
N897        N  0.13617093  0.90154254  0.32839764    -0.60090
N898        N  0.11310796  0.88079698  0.30825505    -0.05120
N899        N  0.13910453  0.89950433  0.30310877    -0.57930
N900        N  0.02078411  0.88226922  0.32195776    -0.04790
N901        N  0.49155160  0.89864144  0.32652736    -0.60440
C902        C  0.47489821  0.90792610  0.31346759     0.96340
C903        C  0.15360106  0.91189749  0.31578998     0.96120
N904        N  0.10760540  0.80693692  0.34985205    -0.06020
N905        N  0.13476006  0.79795290  0.35957487    -0.58540
N906        N  0.01754660  0.83472962  0.34675403    -0.04140
N907        N  0.48699574  0.84497684  0.35401847    -0.59790
N908        N  0.01692352  0.80656742  0.34694634    -0.06050
N909        N  0.48599303  0.79704697  0.35445149    -0.58800
N910        N  0.10780484  0.83511009  0.34918392    -0.03790
N911        N  0.13480186  0.84580824  0.35839307    -0.59880
Mn912      Mn  0.06454238  0.85916617  0.33566803     1.18440
C913        C  0.15153842  0.82249973  0.36468717     0.98420
C914        C  0.46750816  0.82128544  0.35854867     0.99080
N915        N  0.11220664  0.83093092  0.28164405    -0.06070
N916        N  0.11502913  0.83080525  0.26659219    -0.62380
N917        N  0.03350386  0.80794496  0.27951503    -0.04880
N918        N  0.53674253  0.80655524  0.26449636    -0.63060
N919        N  0.02287971  0.83416098  0.28302923    -0.05580
N920        N  0.51349740  0.84876928  0.27081679    -0.62650
N921        N  0.12160621  0.80524933  0.28661112    -0.04480
N922        N  0.13639930  0.78969519  0.27574253    -0.63340
Mn923      Mn  0.06802224  0.85710538  0.29509685     1.10660
C924        C  0.13014676  0.80470847  0.26312391     0.99640
C925        C  0.52429970  0.83240203  0.25923526     0.99720
N926        N  0.02102396  0.75824854  0.32177216    -0.05590
N927        N  0.49495522  0.73863853  0.32587757    -0.60960
N928        N  0.11312755  0.75826984  0.31031133    -0.04910
N929        N  0.14170432  0.74151651  0.30565224    -0.57690
N930        N  0.11101274  0.75792467  0.32515092    -0.06220
N931        N  0.13802822  0.74068581  0.33094563    -0.60530
N932        N  0.02338162  0.75942392  0.30686300    -0.05200
N933        N  0.49928443  0.74051238  0.30061031    -0.57710
Mn934      Mn  0.06398025  0.78166551  0.33642933     1.20190
Mn935      Mn  0.07223926  0.78266042  0.29590786     1.10090
Cl936      Cl  0.06706045  0.82011483  0.31600079    -0.85680
C937        C  0.48137650  0.72808584  0.31257401     0.96650
C938        C  0.15710387  0.73090972  0.31859428     0.96450
N939        N  0.03830002  0.93030292  0.21735637    -0.05840
N940        N  0.06404345  0.91091996  0.22237314    -0.57960
N941        N  0.49930798  0.88266504  0.19968199    -0.05520
N942        N  0.50952597  0.85566922  0.20183944    -0.60090
N943        N  0.02564395  0.89558442  0.19105307    -0.05120
N944        N  0.05377356  0.87786727  0.18722860    -0.57930
N945        N  0.50599983  0.92746390  0.22539189    -0.04790
N946        N  0.01205732  0.91071123  0.23714327    -0.60440
C947        C  0.04713456  0.89896967  0.23481272     0.96340
C948        C  0.04308703  0.85307408  0.19375878     0.96120
N949        N  0.37934093  0.90323207  0.19552612    -0.06020
N950        N  0.35063898  0.88642871  0.19051124    -0.58540
N951        N  0.41912637  0.93717974  0.22641379    -0.04140
N952        N  0.43175808  0.95029831  0.23881081    -0.59790
N953        N  0.39200195  0.95268431  0.21959268    -0.06050
N954        N  0.38604603  0.97648700  0.22729975    -0.58800
N955        N  0.40672790  0.88806518  0.20221332    -0.03790
N956        N  0.39750171  0.86059821  0.20198351    -0.59880
Mn957      Mn  0.45699574  0.90849908  0.21337589     1.18440
C958        C  0.36268800  0.85990728  0.19454028     0.98420
C959        C  0.41071003  0.97459452  0.23928950     0.99080
N960        N  0.03155919  0.94748646  0.16776162    -0.06070
N961        N  0.05978182  0.94095202  0.15813915    -0.62380
N962        N  0.00938832  0.50531046  0.18721125    -0.04880
N963        N  0.01912881  0.53268746  0.18781973    -0.63060
N964        N  0.03620360  0.98951666  0.19423731    -0.05580
N965        N  0.06479441  0.50619947  0.19957348    -0.62650
N966        N  0.00455415  0.96312344  0.16098195    -0.04480
N967        N  0.01406519  0.96763357  0.14667075    -0.63340
Mn968      Mn  0.03349798  0.94140031  0.19258998     1.10660
C969        C  0.04819802  0.95332032  0.14501395     0.99640
C970        C  0.05338460  0.53304971  0.19565729     0.99720
N971        N  0.38749718  0.49624534  0.19402589    -0.05590
N972        N  0.35852302  0.51344322  0.19762812    -0.60960
N973        N  0.40996539  0.96420481  0.16230243    -0.04910
N974        N  0.39907533  0.96635717  0.14796936    -0.57690
N975        N  0.38254323  0.95064213  0.17012230    -0.06220
N976        N  0.35266324  0.94340611  0.16131671    -0.60530
N977        N  0.41494512  0.51002782  0.18649663    -0.05200
N978        N  0.40477628  0.53708943  0.18465891    -0.57710
Mn979      Mn  0.38413307  0.95009554  0.19490505     1.20190
Mn980      Mn  0.45988168  0.98620196  0.17395459     1.10090
Cl981      Cl  0.45886841  0.94652643  0.19337627    -0.85680
C982        C  0.36993595  0.53879126  0.19192847     0.96650
C983        C  0.36372148  0.95291305  0.14756159     0.96450
N984        N  0.13257701  0.70686711  0.22012225    -0.05840
N985        N  0.10494884  0.72344335  0.22611560    -0.57960
N986        N  0.16533399  0.75877558  0.20258379    -0.05520
N987        N  0.15597084  0.78611011  0.20400908    -0.60090
N988        N  0.13767733  0.74541246  0.19477143    -0.05120
N989        N  0.10939724  0.76291950  0.19071576    -0.57930
N990        N  0.16594776  0.71203180  0.22734656    -0.04790
N991        N  0.15984788  0.72806319  0.23929310    -0.60440
C992        C  0.12254119  0.73650263  0.23809522     0.96340
C993        C  0.12134469  0.78816061  0.19630730     0.96120
N994        N  0.28497615  0.74194413  0.19455782    -0.06020
N995        N  0.31157565  0.76005185  0.18920677    -0.58540
N996        N  0.25441276  0.70386204  0.22553218    -0.04140
N997        N  0.24791116  0.69022681  0.23845751    -0.59790
N998        N  0.28048299  0.68988630  0.21747978    -0.06050
N999        N  0.29193351  0.66662014  0.22485402    -0.58800
N1000       N  0.25851790  0.75560231  0.20243213    -0.03790
N1001       N  0.26637199  0.78328882  0.20269686    -0.59880
Mn1002     Mn  0.21182073  0.73287978  0.21446895     1.18440
C1003       C  0.29926455  0.78574065  0.19429347     0.98420
C1004       C  0.27194345  0.66733546  0.23801185     0.99080
N1005       N  0.13045358  0.69795857  0.17050375    -0.06070
N1006       N  0.10185146  0.70877152  0.16218467    -0.62380
N1007       N  0.15828500  0.63754570  0.18627751    -0.04880
N1008       N  0.14989342  0.60987787  0.18624922    -0.63060
N1009       N  0.13301368  0.65148491  0.19488271    -0.05580
N1010       N  0.10686496  0.63335967  0.20063700    -0.62650
N1011       N  0.15604669  0.68456041  0.16200206    -0.04480
N1012       N  0.14497933  0.68571408  0.14763095    -0.63340
Mn1013     Mn  0.13304513  0.69949296  0.19513590     1.10660
C1014       C  0.11137881  0.70109495  0.14804439     0.99640
C1015       C  0.11813213  0.60748496  0.19532311     0.99720
N1016       N  0.28024828  0.64911886  0.19057580    -0.05590
N1017       N  0.30842628  0.63149236  0.19465425    -0.60960
N1018       N  0.25138506  0.68481757  0.15998331    -0.04910
N1019       N  0.25898892  0.68662374  0.14527611    -0.57690
N1020       N  0.27953095  0.69785449  0.16775747    -0.06220
N1021       N  0.30642818  0.70867150  0.15861580    -0.60530
N1022       N  0.25210619  0.63556611  0.18323066    -0.05200
N1023       N  0.26080643  0.60811448  0.18204405    -0.57710
Mn1024     Mn  0.28247959  0.69516151  0.19264464     1.20190
Mn1025     Mn  0.20421056  0.65996689  0.17238858     1.10090
Cl1026     Cl  0.20762020  0.69676117  0.19345309    -0.85680
C1027       C  0.29577846  0.60612340  0.18942027     0.96650
C1028       C  0.29324405  0.70179699  0.14465003     0.96450
N1029       N  0.38186552  0.72281246  0.08492504    -0.05840
N1030       N  0.35283067  0.71195379  0.09307740    -0.57960
N1031       N  0.41276016  0.78340321  0.06971194    -0.05520
N1032       N  0.40350827  0.81071937  0.07054035    -0.60090
N1033       N  0.38748045  0.76965263  0.06087141    -0.05120
N1034       N  0.36043879  0.78741634  0.05567618    -0.57930
N1035       N  0.40771158  0.73602471  0.09369609    -0.04790
N1036       N  0.39627119  0.73453824  0.10802116    -0.60440
C1037       C  0.36216007  0.71927177  0.10743447     0.96340
C1038       C  0.37125250  0.81287097  0.06163385     0.96120
N1039       N  0.03457341  0.77147986  0.06547052    -0.06020
N1040       N  0.06285548  0.78879579  0.06098959    -0.58540
N1041       N  0.50347965  0.73586514  0.09578333    -0.04140
N1042       N  0.50988237  0.73328554  0.11051096    -0.59790
N1043       N  0.03171901  0.72305246  0.08822007    -0.06050
N1044       N  0.05754919  0.71147986  0.09750860    -0.58800
N1045       N  0.50698183  0.78541273  0.07270365    -0.03790
N1046       N  0.51639356  0.81299937  0.07331068    -0.59880
Mn1047     Mn  0.45762923  0.76090572  0.08351988     1.18440
C1048       C  0.05120457  0.81452173  0.06580209     0.98420
C1049       C  0.04342956  0.71779305  0.11126734     0.99080
N1050       N  0.39198512  0.71923206  0.03466500    -0.06070
N1051       N  0.36516103  0.71467686  0.02385682    -0.62380
N1052       N  0.41817099  0.66242981  0.05343583    -0.04880
N1053       N  0.41015218  0.63461854  0.05365659    -0.63060
N1054       N  0.38928313  0.67642500  0.05990523    -0.05580
N1055       N  0.36156035  0.65896204  0.06470302    -0.62650
N1056       N  0.42629956  0.71162462  0.02941501    -0.04480
N1057       N  0.42459566  0.70553527  0.01504419    -0.63340
Mn1058     Mn  0.38646022  0.72240086  0.05992918     1.10660
C1059       C  0.38669172  0.70663788  0.01154614     0.99640
C1060       C  0.37494087  0.63306539  0.06088065     0.99720
N1061       N  0.03917625  0.67850611  0.06216318    -0.05590
N1062       N  0.06758129  0.66125307  0.06674451    -0.60960
N1063       N  0.51145474  0.71402406  0.03081407    -0.04910
N1064       N  0.50427580  0.72611860  0.01752693    -0.57690
N1065       N  0.03552693  0.73017851  0.03879133    -0.06220
N1066       N  0.04422775  0.75379654  0.03108646    -0.60530
N1067       N  0.51231867  0.66414179  0.05462066    -0.05200
N1068       N  0.52176286  0.63687169  0.05368459    -0.57710
Mn1069     Mn  0.03628166  0.72552800  0.06364696     1.20190
Mn1070     Mn  0.46728350  0.68715425  0.04222943     1.10090
Cl1071     Cl  0.46151193  0.72394274  0.06273232    -0.85680
C1072       C  0.05598869  0.63539137  0.06147745     0.96650
C1073       C  0.02499392  0.75071555  0.01770859     0.96450
N1074       N  0.13434169  0.97244556  0.08522959    -0.05840
N1075       N  0.10652940  0.96076420  0.09366870    -0.57960
N1076       N  0.16467219  0.53345657  0.07022456    -0.05520
N1077       N  0.15577612  0.56081596  0.07132106    -0.60090
N1078       N  0.13875952  0.52006696  0.06149021    -0.05120
N1079       N  0.11166722  0.53815195  0.05663901    -0.57930
N1080       N  0.16087515  0.98536053  0.09379786    -0.04790
N1081       N  0.15130993  0.98287051  0.10825641    -0.60440
C1082       C  0.11758403  0.96728090  0.10795644     0.96340
C1083       C  0.12306586  0.56341506  0.06269249     0.96120
N1084       N  0.28631904  0.52075589  0.06541152    -0.06020
N1085       N  0.31477511  0.53803951  0.06106260    -0.58540
N1086       N  0.25541248  0.98446373  0.09548614    -0.04140
N1087       N  0.26138507  0.98089093  0.11017586    -0.59790
N1088       N  0.28321161  0.97149850  0.08777996    -0.06050
N1089       N  0.30841384  0.95885771  0.09695060    -0.58800
N1090       N  0.25898108  0.53464768  0.07279650    -0.03790
N1091       N  0.26868737  0.56212035  0.07367843    -0.59880
Mn1092     Mn  0.20989413  0.51027310  0.08358117     1.18440
C1093       C  0.30341490  0.56365570  0.06615408     0.98420
C1094       C  0.29421861  0.96462044  0.11078728     0.99080
N1095       N  0.14104951  0.96968954  0.03492496    -0.06070
N1096       N  0.11385329  0.96197185  0.02478152    -0.62380
N1097       N  0.16713225  0.91294888  0.05281747    -0.04880
N1098       N  0.15838923  0.88522004  0.05266836    -0.63060
N1099       N  0.13904415  0.92686410  0.05981041    -0.05580
N1100       N  0.11113706  0.90950142  0.06455832    -0.62650
N1101       N  0.17563471  0.96392497  0.02926718    -0.04480
N1102       N  0.17313063  0.95679557  0.01503152    -0.63340
Mn1103     Mn  0.13712100  0.97271490  0.06023988     1.10660
C1104       C  0.13491239  0.95439454  0.01228518     0.99640
C1105       C  0.12354414  0.88366520  0.06018774     0.99720
N1106       N  0.28862469  0.92792113  0.06123434    -0.05590
N1107       N  0.31662241  0.91022310  0.06565680    -0.60960
N1108       N  0.26094050  0.96465840  0.03037815    -0.04910
N1109       N  0.25390849  0.97714798  0.01719285    -0.57690
N1110       N  0.28570901  0.98019502  0.03838786    -0.06220
N1111       N  0.29507230  0.00381377  0.03080995    -0.60530
N1112       N  0.26131589  0.91409515  0.05363508    -0.05200
N1113       N  0.27007175  0.88673387  0.05250185    -0.57710
Mn1114     Mn  0.28709262  0.97481559  0.06318460     1.20190
Mn1115     Mn  0.21639776  0.93799590  0.04164061     1.10090
Cl1116     Cl  0.21229884  0.97391460  0.06252665    -0.85680
C1117       C  0.30433605  0.88467639  0.06023112     0.96650
C1118       C  0.27548126  0.00134076  0.01747489     0.96450
N1119       N  0.98490703  0.83926223  0.96860769    -0.05840
N1120       N  0.47572000  0.81563324  0.97623414    -0.57960
N1121       N  0.00793132  0.90556816  0.95342118    -0.05520
N1122       N  0.99940832  0.93298865  0.95466586    -0.60090
N1123       N  0.98048560  0.89197994  0.94576596    -0.05120
N1124       N  0.45253331  0.90991600  0.94149177    -0.57930
N1125       N  0.01043492  0.85447655  0.97642873    -0.04790
N1126       N  0.01821373  0.84182552  0.98951110    -0.60440
C1127       C  0.99623945  0.81781989  0.98939579     0.96340
C1128       C  0.46500389  0.93539409  0.94702763     0.96120
N1129       N  0.12821621  0.89404765  0.94486668    -0.06020
N1130       N  0.15551069  0.91191259  0.94015459    -0.58540
N1131       N  0.09612208  0.85471336  0.97668819    -0.04140
N1132       N  0.09824269  0.86627972  0.99014228    -0.59790
N1133       N  0.13065116  0.85447931  0.97016047    -0.06050
N1134       N  0.15394225  0.87234227  0.97782866    -0.58800
N1135       N  0.10128890  0.90708642  0.95293368    -0.03790
N1136       N  0.10999193  0.93473005  0.95375231    -0.59880
Mn1137     Mn  0.05394612  0.88125780  0.96481360     1.18440
C1138       C  0.14360442  0.93716100  0.94555300     0.98420
C1139       C  0.13291106  0.87941266  0.99033722     0.99080
N1140       N  0.98555528  0.84749147  0.91893033    -0.06070
N1141       N  0.45967769  0.85903804  0.90959523    -0.62380
N1142       N  0.01073823  0.78492085  0.93445571    -0.04880
N1143       N  0.00081131  0.75750481  0.93361990    -0.63060
N1144       N  0.98339937  0.79900837  0.94173045    -0.05580
N1145       N  0.45482951  0.78188847  0.94611744    -0.62650
N1146       N  0.01318937  0.83404559  0.91132273    -0.04480
N1147       N  0.00653657  0.83630749  0.89662465    -0.63340
Mn1148     Mn  0.98232539  0.84487561  0.94372290     1.10660
C1149       C  0.47347769  0.85222532  0.89580269     0.99640
C1150       C  0.96610255  0.75619522  0.94114035     0.99720
N1151       N  0.13171588  0.80091776  0.94481950    -0.05590
N1152       N  0.15929052  0.78336696  0.94985772    -0.60960
N1153       N  0.10778489  0.83256117  0.91196492    -0.04910
N1154       N  0.11841774  0.83169000  0.89757021    -0.57690
N1155       N  0.13440733  0.84649379  0.92000366    -0.06220
N1156       N  0.16340331  0.85551185  0.91123422    -0.60530
N1157       N  0.10544129  0.78665705  0.93663463    -0.05200
N1158       N  0.11458939  0.75927079  0.93609946    -0.57710
Mn1159     Mn  0.13217673  0.84852269  0.94499769     1.20190
Mn1160     Mn  0.05927520  0.80875064  0.92315553     1.10090
Cl1161     Cl  0.05706034  0.84601977  0.94367801    -0.85680
C1162       C  0.14783924  0.75752717  0.94449494     0.96650
C1163       C  0.15289004  0.84637946  0.89727974     0.96450
N1164       N  0.23520399  0.58967039  0.96860114    -0.05840
N1165       N  0.22619496  0.56623046  0.97639807    -0.57960
N1166       N  0.25732356  0.65548298  0.95291355    -0.05520
N1167       N  0.24843018  0.68285017  0.95401443    -0.60090
N1168       N  0.22994717  0.64151993  0.94540654    -0.05120
N1169       N  0.20165837  0.65914513  0.94110296    -0.57930
N1170       N  0.26081932  0.60512394  0.97626677    -0.04790
N1171       N  0.26889301  0.59276692  0.98939883    -0.60440
C1172       C  0.24694079  0.56874678  0.98947843     0.96340
C1173       C  0.21388066  0.68482048  0.94645322     0.96120
N1174       N  0.37735600  0.64468976  0.94408031    -0.06020
N1175       N  0.40439737  0.66259893  0.93920182    -0.58540
N1176       N  0.34680316  0.60627217  0.97644480    -0.04140
N1177       N  0.34891542  0.61913367  0.98956909    -0.59790
N1178       N  0.38108300  0.60627429  0.96970161    -0.06050
N1179       N  0.40367687  0.62553728  0.97669226    -0.58800
N1180       N  0.35049671  0.65776202  0.95216643    -0.03790
N1181       N  0.35897530  0.68544941  0.95282853    -0.59880
Mn1182     Mn  0.30386077  0.63197895  0.96442553     1.18440
C1183       C  0.39236403  0.68789197  0.94450561     0.98420
C1184       C  0.38280024  0.63330024  0.98910251     0.99080
N1185       N  0.23527618  0.59648355  0.91892173    -0.06070
N1186       N  0.20952935  0.60807746  0.90955526    -0.62380
N1187       N  0.26130958  0.53441704  0.93486667    -0.04880
N1188       N  0.25171742  0.50690954  0.93427484    -0.63060
N1189       N  0.23387117  0.54852289  0.94207129    -0.05580
N1190       N  0.20557583  0.53134753  0.94665322    -0.62650
N1191       N  0.26300459  0.58306630  0.91136516    -0.04480
N1192       N  0.25656292  0.58537790  0.89665441    -0.63340
Mn1193     Mn  0.23226513  0.59440963  0.94369364     1.10660
C1194       C  0.22349826  0.60128974  0.89578916     0.99640
C1195       C  0.21711242  0.50558366  0.94187470     0.99720
N1196       N  0.38228855  0.55153303  0.94489391    -0.05590
N1197       N  0.41019858  0.53430986  0.94999362    -0.60960
N1198       N  0.35740141  0.58217504  0.91183820    -0.04910
N1199       N  0.36781679  0.58119891  0.89741946    -0.57690
N1200       N  0.38386940  0.59648937  0.91974036    -0.06220
N1201       N  0.41252608  0.60570498  0.91087985    -0.60530
N1202       N  0.35608939  0.53686817  0.93687488    -0.05200
N1203       N  0.36561625  0.50953371  0.93652273    -0.57710
Mn1204     Mn  0.38200357  0.59917515  0.94463940     1.20190
Mn1205     Mn  0.30943345  0.55835192  0.92332549     1.10090
Cl1206     Cl  0.30689585  0.59610583  0.94376553    -0.85680
C1207       C  0.39903324  0.50823525  0.94485037     0.96650
C1208       C  0.40199026  0.59626037  0.89700033     0.96450
N1209       N  0.14816660  0.59185926  0.41866847    -0.05840
N1210       N  0.17294089  0.57908792  0.40958969    -0.57960
N1211       N  0.12423115  0.65444805  0.43386737    -0.05520
N1212       N  0.13393390  0.68195783  0.43317659    -0.60090
N1213       N  0.15165201  0.64032180  0.44128259    -0.05120
N1214       N  0.18014546  0.65748424  0.44582258    -0.57930
N1215       N  0.12027409  0.60498705  0.41091543    -0.04790
N1216       N  0.12576521  0.60143748  0.39624851    -0.60440
C1217       C  0.15839334  0.58498083  0.39575914     0.96340
C1218       C  0.16874259  0.68328208  0.44083703     0.96120
N1219       N  0.50420659  0.63942277  0.44463583    -0.06020
N1220       N  0.47712610  0.65734769  0.44944433    -0.58540
N1221       N  0.02583607  0.60562553  0.41218085    -0.04140
N1222       N  0.01660721  0.60302989  0.39764567    -0.59790
N1223       N  0.49936426  0.59244314  0.42059146    -0.06050
N1224       N  0.47194582  0.58049004  0.41194981    -0.58800
N1225       N  0.03001170  0.65305771  0.43604556    -0.03790
N1226       N  0.02108435  0.68042219  0.43500431    -0.59880
Mn1227     Mn  0.07498270  0.63035870  0.42274325     1.18440
C1228       C  0.48846726  0.68275750  0.44352011     0.98420
C1229       C  0.48312496  0.58712292  0.39770166     0.99080
N1230       N  0.15182899  0.59835145  0.46790669    -0.06070
N1231       N  0.16134545  0.62163985  0.47567272    -0.62380
N1232       N  0.12711548  0.53305640  0.45198869    -0.04880
N1233       N  0.13608314  0.00571618  0.45303853    -0.63060
N1234       N  0.15440746  0.54726575  0.44467338    -0.05580
N1235       N  0.18263844  0.52984360  0.44036519    -0.62650
N1236       N  0.12716681  0.58248240  0.47571540    -0.04480
N1237       N  0.12033403  0.59446222  0.48896680    -0.63340
Mn1238     Mn  0.15259760  0.59423058  0.44315563     1.10660
C1239       C  0.14194268  0.61865129  0.48891647     0.99640
C1240       C  0.17044769  0.00405859  0.44554629     0.99720
N1241       N  0.50452226  0.54612221  0.44586173    -0.05590
N1242       N  0.47652661  0.52892270  0.44094529    -0.60960
N1243       N  0.04181614  0.58114230  0.47655616    -0.04910
N1244       N  0.04001378  0.57488093  0.49091871    -0.57690
N1245       N  0.50749033  0.58865368  0.47106466    -0.06220
N1246       N  0.48058074  0.58370726  0.48168834    -0.60530
N1247       N  0.03302477  0.53187553  0.45261278    -0.05200
N1248       N  0.02446071  0.00413583  0.45245098    -0.57710
Mn1249     Mn  0.50257279  0.59209409  0.44568614     1.20190
Mn1250     Mn  0.08245247  0.55624440  0.46407900     1.10090
Cl1251     Cl  0.07775431  0.59327210  0.44358781    -0.85680
C1252       C  0.48930875  0.00289131  0.44498235     0.96650
C1253       C  0.50206365  0.57564475  0.49415743     0.96450
N1254       N  0.39364615  0.84167998  0.41688692    -0.05840
N1255       N  0.41537526  0.82789037  0.40705162    -0.57960
N1256       N  0.37247876  0.90465780  0.43282394    -0.05520
N1257       N  0.38172357  0.93226366  0.43223570    -0.60090
N1258       N  0.40105584  0.89046821  0.43949158    -0.05120
N1259       N  0.42992911  0.90764716  0.44362984    -0.57930
N1260       N  0.36448356  0.85500176  0.40997355    -0.04790
N1261       N  0.36584715  0.85054538  0.39523290    -0.60440
C1262       C  0.39741111  0.83336711  0.39370713     0.96340
C1263       C  0.41756808  0.93353333  0.43916136     0.96120
N1264       N  0.25412328  0.88937767  0.44608594    -0.06020
N1265       N  0.22742220  0.90722958  0.45126385    -0.58540
N1266       N  0.27163444  0.85563648  0.41335755    -0.04140
N1267       N  0.26096954  0.85261617  0.39900579    -0.59790
N1268       N  0.24652300  0.84225176  0.42225712    -0.06050
N1269       N  0.21852715  0.82974411  0.41415320    -0.58800
N1270       N  0.27884326  0.90305773  0.43705744    -0.03790
N1271       N  0.26956845  0.93034715  0.43606609    -0.59880
Mn1272     Mn  0.32174238  0.88048322  0.42284855     1.18440
C1273       C  0.23792238  0.93262201  0.44509257     0.98420
C1274       C  0.22803222  0.83624016  0.39972032     0.99080
N1275       N  0.40412020  0.84922354  0.46633252    -0.06070
N1276       N  0.41331355  0.87302384  0.47375570    -0.62380
N1277       N  0.37831643  0.78335465  0.45118151    -0.04880
N1278       N  0.38775213  0.75610498  0.45229959    -0.63060
N1279       N  0.40440778  0.79747809  0.44320286    -0.05580
N1280       N  0.43225391  0.78006299  0.43851462    -0.62650
N1281       N  0.38083585  0.83317268  0.47467699    -0.04480
N1282       N  0.37487791  0.84546972  0.48791251    -0.63340
Mn1283     Mn  0.40211268  0.84443911  0.44144940     1.10660
C1284       C  0.39535009  0.87012412  0.48732719     0.99640
C1285       C  0.42109198  0.75437306  0.44416173     0.99720
N1286       N  0.25510714  0.79602609  0.44730636    -0.05590
N1287       N  0.22686493  0.77869257  0.44274762    -0.60960
N1288       N  0.29554831  0.83106398  0.47734061    -0.04910
N1289       N  0.29483948  0.82408777  0.49164119    -0.57690
N1290       N  0.26071229  0.83860052  0.47234812    -0.06220
N1291       N  0.23468259  0.83299007  0.48318503    -0.60530
N1292       N  0.28453331  0.78188222  0.45350004    -0.05200
N1293       N  0.27640829  0.75407679  0.45331239    -0.57710
Mn1294     Mn  0.25284911  0.84201814  0.44716625     1.20190
Mn1295     Mn  0.33503988  0.80649840  0.46404093     1.10090
Cl1296     Cl  0.32755308  0.84339544  0.44359271    -0.85680
C1297       C  0.24047881  0.75269428  0.44642618     0.96650
C1298       C  0.25708872  0.82440890  0.49528363     0.96450
N1299       N  0.49816505  0.97468270  0.53621867    -0.05840
N1300       N  0.02025704  0.99444531  0.52940273    -0.57960
N1301       N  0.46685069  0.52546947  0.55363598    -0.05520
N1302       N  0.47528698  0.55315579  0.55289299    -0.60090
N1303       N  0.49377417  0.51243650  0.56188966    -0.05120
N1304       N  0.02078554  0.53036867  0.56682090    -0.57930
N1305       N  0.46391855  0.97437449  0.52928905    -0.04790
N1306       N  0.46574757  0.98753336  0.51619795    -0.60440
C1307       C  0.99924173  0.00216752  0.51687792     0.96340
C1308       C  0.50867264  0.55563509  0.56136800     0.96120
N1309       N  0.34636837  0.50848040  0.55958931    -0.06020
N1310       N  0.31812715  0.52591726  0.56396531    -0.58540
N1311       N  0.37815100  0.97279035  0.52886003    -0.04140
N1312       N  0.38667382  0.96084412  0.51574987    -0.59790
N1313       N  0.35283628  0.95686385  0.53631700    -0.06050
N1314       N  0.34453968  0.93345685  0.52840734    -0.58800
N1315       N  0.37367004  0.52277074  0.55230874    -0.03790
N1316       N  0.36476119  0.55019905  0.55142549    -0.59880
Mn1317     Mn  0.42060959  0.49961137  0.54108947     1.18440
C1318       C  0.33024293  0.55184634  0.55887559     0.98420
C1319       C  0.36537311  0.93653289  0.51546038     0.99080
N1320       N  0.50060522  0.96400215  0.58621312    -0.06070
N1321       N  0.02871550  0.47375236  0.59527616    -0.62380
N1322       N  0.47368802  0.90442491  0.56894137    -0.04880
N1323       N  0.48323533  0.87708533  0.56923729    -0.63060
N1324       N  0.99975641  0.91930621  0.56103669    -0.05580
N1325       N  0.02762617  0.90220068  0.55597622    -0.62650
N1326       N  0.47423386  0.94947021  0.59398209    -0.04480
N1327       N  0.48419094  0.94886271  0.60850846    -0.63340
Mn1328     Mn  0.99899339  0.96703375  0.56129213     1.10660
C1329       C  0.01797339  0.96437723  0.60912012     0.99640
C1330       C  0.01655731  0.87598693  0.56101905     0.99720
N1331       N  0.35168662  0.91541500  0.56288237    -0.05590
N1332       N  0.32348997  0.89811268  0.55827727    -0.60960
N1333       N  0.37966027  0.94969800  0.59385621    -0.04910
N1334       N  0.37310687  0.95205452  0.60852338    -0.57690
N1335       N  0.35188979  0.96301137  0.58606647    -0.06220
N1336       N  0.32603338  0.97457692  0.59523069    -0.60530
N1337       N  0.37910211  0.90145394  0.57037408    -0.05200
N1338       N  0.36960206  0.87396195  0.57114843    -0.57710
Mn1339     Mn  0.34938464  0.96132711  0.56122575     1.20190
Mn1340     Mn  0.42668584  0.92541787  0.58224075     1.10090
Cl1341     Cl  0.42401720  0.96342921  0.56192996    -0.85680
C1342       C  0.33511882  0.87245547  0.56333706     0.96650
C1343       C  0.33990367  0.96784096  0.60911632     0.96450
N1344       N  0.24815981  0.72264873  0.53644594    -0.05840
N1345       N  0.27202608  0.74103421  0.52947747    -0.57960
N1346       N  0.21797054  0.77474631  0.55345860    -0.05520
N1347       N  0.22698671  0.80229963  0.55247147    -0.60090
N1348       N  0.24477620  0.76158539  0.56171703    -0.05120
N1349       N  0.27229705  0.77934233  0.56641506    -0.57930
N1350       N  0.21395917  0.72365559  0.52946857    -0.04790
N1351       N  0.21693625  0.73658278  0.51634787    -0.60440
C1352       C  0.25173992  0.74953907  0.51693872     0.96340
C1353       C  0.26061053  0.80460293  0.56080183     0.96120
N1354       N  0.09728581  0.75936511  0.55991101    -0.06020
N1355       N  0.06936337  0.77723738  0.56409942    -0.58540
N1356       N  0.12771813  0.72252993  0.52938986    -0.04140
N1357       N  0.13566913  0.70995506  0.51639719    -0.59790
N1358       N  0.10195405  0.70731480  0.53704692    -0.06050
N1359       N  0.09268070  0.68383359  0.52938543    -0.58800
N1360       N  0.12474310  0.77311512  0.55242252    -0.03790
N1361       N  0.11626446  0.80057318  0.55122350    -0.59880
Mn1362     Mn  0.17103521  0.74926893  0.54121602     1.18440
C1363       C  0.08186623  0.80284254  0.55869215     0.98420
C1364       C  0.11344116  0.68607090  0.51639768     0.99080
N1365       N  0.25067446  0.71378134  0.58645209    -0.06070
N1366       N  0.27902936  0.72352432  0.59539635    -0.62380
N1367       N  0.22254310  0.65389440  0.56965148    -0.04880
N1368       N  0.23163267  0.62645983  0.57007640    -0.63060
N1369       N  0.24877987  0.66835602  0.56162981    -0.05580
N1370       N  0.27626106  0.65091576  0.55659338    -0.62650
N1371       N  0.22414609  0.69969992  0.59435559    -0.04480
N1372       N  0.23419732  0.69940858  0.60887345    -0.63340
Mn1373     Mn  0.24890103  0.71599463  0.56154051     1.10660
C1374       C  0.26823990  0.71463456  0.60932639     0.99640
C1375       C  0.26483960  0.62490880  0.56179241     0.99720
N1376       N  0.10047377  0.66629233  0.56379663    -0.05590
N1377       N  0.07188505  0.64923049  0.55929808    -0.60960
N1378       N  0.12984034  0.70087910  0.59443227    -0.04910
N1379       N  0.12336734  0.70332560  0.60909743    -0.57690
N1380       N  0.10226469  0.71439316  0.58665247    -0.06220
N1381       N  0.07660677  0.72618662  0.59580879    -0.60530
N1382       N  0.12778302  0.65212446  0.57123520    -0.05200
N1383       N  0.11780577  0.62471988  0.57208268    -0.57710
Mn1384     Mn  0.09920092  0.71220508  0.56189350     1.20190
Mn1385     Mn  0.17608591  0.67585714  0.58283693     1.10090
Cl1386     Cl  0.17382845  0.71343548  0.56210351    -0.85680
C1387       C  0.08312387  0.62349804  0.56437822     0.96650
C1388       C  0.09043763  0.71940498  0.60968711     0.96450
N1389       N  0.35853063  0.72396465  0.66942021    -0.05840
N1390       N  0.32932175  0.73121952  0.66023156    -0.57960
N1391       N  0.38619021  0.66536996  0.68717009    -0.05520
N1392       N  0.37786296  0.63780830  0.68711327    -0.60090
N1393       N  0.35939452  0.67967975  0.69483170    -0.05120
N1394       N  0.33213053  0.66189216  0.69996643    -0.57930
N1395       N  0.38563292  0.70985804  0.66195327    -0.04790
N1396       N  0.37509338  0.70708714  0.64757556    -0.60440
C1397       C  0.34025083  0.72087022  0.64664535     0.96340
C1398       C  0.34450169  0.63596335  0.69521628     0.96120
N1399       N  0.00714259  0.67644791  0.69352188    -0.06020
N1400       N  0.03611566  0.65942059  0.69752240    -0.58540
N1401       N  0.48066792  0.71062240  0.66237989    -0.04140
N1402       N  0.48948391  0.71068103  0.64785000    -0.59790
N1403       N  0.00852647  0.72382573  0.67022655    -0.06050
N1404       N  0.03669446  0.73307891  0.66121651    -0.58800
N1405       N  0.48000055  0.66257259  0.68581752    -0.03790
N1406       N  0.49034507  0.63546714  0.68428397    -0.59880
Mn1407     Mn  0.43295260  0.68661410  0.67397176     1.18440
C1408       C  0.02510673  0.63399320  0.69187508     0.98420
C1409       C  0.02405158  0.72511503  0.64734457     0.99080
N1410       N  0.35782090  0.73402403  0.71967895    -0.06070
N1411       N  0.32855892  0.74338983  0.72834958    -0.62380
N1412       N  0.39180181  0.78710835  0.70104600    -0.04880
N1413       N  0.38378698  0.81479152  0.70125343    -0.63060
N1414       N  0.36406210  0.77336097  0.69345138    -0.05580
N1415       N  0.33710393  0.79101771  0.68831656    -0.62650
N1416       N  0.39117551  0.74081029  0.72633179    -0.04480
N1417       N  0.38561681  0.75114059  0.73987138    -0.63340
Mn1418     Mn  0.35889134  0.72732654  0.69439152     1.10660
C1419       C  0.34687262  0.75336093  0.74113852     0.99640
C1420       C  0.34997275  0.81669531  0.69303880     0.99720
N1421       N  0.01269370  0.76933938  0.69642058    -0.05590
N1422       N  0.04185801  0.78652171  0.69235900    -0.60960
N1423       N  0.47659035  0.73430302  0.72702318    -0.04910
N1424       N  0.46305365  0.72089708  0.73915806    -0.57690
N1425       N  0.00172920  0.71788716  0.71985255    -0.06220
N1426       N  0.00452042  0.69291399  0.72696108    -0.60530
N1427       N  0.48507759  0.78390572  0.70314442    -0.05200
N1428       N  0.49458503  0.81123320  0.70396980    -0.57710
Mn1429     Mn  0.00889270  0.72240959  0.69509113     1.20190
Mn1430     Mn  0.43681668  0.76228480  0.71426564     1.10090
Cl1431     Cl  0.43425727  0.72477345  0.69420258    -0.85680
C1432       C  0.02979621  0.81253107  0.69707232     0.96650
C1433       C  0.98041645  0.69520232  0.73900835     0.96450
N1434       N  0.14007775  0.60109843  0.83512082    -0.05840
N1435       N  0.16844547  0.61120889  0.84388266    -0.57960
N1436       N  0.11016325  0.53948135  0.82042030    -0.05520
N1437       N  0.12063403  0.51240966  0.82218935    -0.60090
N1438       N  0.13666972  0.55310363  0.81234829    -0.05120
N1439       N  0.16527226  0.53594503  0.80833098    -0.57930
N1440       N  0.11270458  0.58825529  0.84329019    -0.04790
N1441       N  0.12205803  0.58941551  0.85779954    -0.60440
C1442       C  0.15644845  0.60411123  0.85793473     0.96340
C1443       C  0.15475399  0.51069940  0.81435554     0.96120
N1444       N  0.48899793  0.55681214  0.81195313    -0.06020
N1445       N  0.46156558  0.53910582  0.80681430    -0.58540
N1446       N  0.01772263  0.58778136  0.84437334    -0.04140
N1447       N  0.00814064  0.58566597  0.85884863    -0.59790
N1448       N  0.49037529  0.60190980  0.83686641    -0.06050
N1449       N  0.46198315  0.60983482  0.84609861    -0.58800
N1450       N  0.01606766  0.54244771  0.81962047    -0.03790
N1451       N  0.00768909  0.51486540  0.81970725    -0.59880
Mn1452     Mn  0.06404219  0.56394889  0.83231230     1.18440
C1453       C  0.47398601  0.51312982  0.81160832     0.98420
C1454       C  0.47363227  0.59988012  0.85976847     0.99080
N1455       N  0.12970028  0.59391017  0.78557054    -0.06070
N1456       N  0.13197673  0.56886834  0.77858940    -0.62380
N1457       N  0.11521344  0.66056682  0.80179870    -0.04880
N1458       N  0.12476249  0.68792691  0.80101417    -0.63060
N1459       N  0.14303852  0.64587884  0.80851205    -0.05580
N1460       N  0.17234337  0.66297096  0.81262016    -0.62650
N1461       N  0.10420272  0.61033060  0.77840402    -0.04480
N1462       N  0.08984960  0.59684538  0.76640323    -0.63340
Mn1463     Mn  0.13873732  0.59898302  0.81027936     1.10660
C1464       C  0.10717084  0.57110807  0.76660612     0.99640
C1465       C  0.16026022  0.68907902  0.80791502     0.99720
N1466       N  0.49450474  0.65052496  0.81224745    -0.05590
N1467       N  0.46791799  0.66832360  0.81733392    -0.60960
N1468       N  0.01891829  0.61734312  0.77971076    -0.04910
N1469       N  0.01204611  0.62660162  0.76598740    -0.57690
N1470       N  0.48634171  0.60992341  0.78659938    -0.06220
N1471       N  0.45605470  0.61747172  0.77779294    -0.60530
N1472       N  0.02180290  0.66409848  0.80441200    -0.05200
N1473       N  0.01377913  0.69178561  0.80396454    -0.57710
Mn1474     Mn  0.48902468  0.60440797  0.81188684     1.20190
Mn1475     Mn  0.06573471  0.63889166  0.79117274     1.10090
Cl1476     Cl  0.06427441  0.60168401  0.81163721    -0.85680
C1477       C  0.48048499  0.69389191  0.81230833     0.96650
C1478       C  0.47310435  0.62719046  0.76476100     0.96450
N1479       N  0.10827649  0.97377374  0.66926539    -0.05840
N1480       N  0.07895892  0.98094767  0.66010668    -0.57960
N1481       N  0.13622839  0.91522259  0.68701216    -0.05520
N1482       N  0.12796658  0.88764852  0.68701388    -0.60090
N1483       N  0.10948040  0.92953364  0.69469518    -0.05120
N1484       N  0.08233156  0.91174719  0.69991155    -0.57930
N1485       N  0.13534561  0.95967265  0.66177372    -0.04790
N1486       N  0.12468282  0.95683949  0.64741283    -0.60440
C1487       C  0.08979192  0.97056172  0.64651396     0.96340
C1488       C  0.09470573  0.88581398  0.69518146     0.96120
N1489       N  0.25725183  0.92648743  0.69316677    -0.06020
N1490       N  0.28628395  0.90952822  0.69717594    -0.58540
N1491       N  0.23042557  0.96046853  0.66203845    -0.04140
N1492       N  0.23925124  0.96018131  0.64751045    -0.59790
N1493       N  0.25836478  0.97374636  0.66981310    -0.06050
N1494       N  0.28661189  0.98268119  0.66074076    -0.58800
N1495       N  0.23006718  0.91252843  0.68552936    -0.03790
N1496       N  0.24045426  0.88541914  0.68404471    -0.59880
Mn1497     Mn  0.18283462  0.93648761  0.67373501     1.18440
C1498       C  0.27528554  0.88405058  0.69159912     0.98420
C1499       C  0.27391670  0.97446720  0.64690844     0.99080
N1500       N  0.10803502  0.98368396  0.71954632    -0.06070
N1501       N  0.07875183  0.99249457  0.72836851    -0.62380
N1502       N  0.14173749  0.53696641  0.70089919    -0.04880
N1503       N  0.13366394  0.56463553  0.70117271    -0.63060
N1504       N  0.11390938  0.52321821  0.69335003    -0.05580
N1505       N  0.08682401  0.54087771  0.68831236    -0.62650
N1506       N  0.14138050  0.99072735  0.72612560    -0.04480
N1507       N  0.13590918  0.00079557  0.73972378    -0.63340
Mn1508     Mn  0.10885170  0.97714340  0.69424897     1.10660
C1509       C  0.09714553  0.00245927  0.74114398     0.99640
C1510       C  0.09971541  0.56654906  0.69304609     0.99720
N1511       N  0.26261623  0.51938430  0.69607705    -0.05590
N1512       N  0.29173900  0.53663669  0.69204332    -0.60960
N1513       N  0.22677004  0.98418792  0.72671446    -0.04910
N1514       N  0.21325567  0.97071192  0.73883424    -0.57690
N1515       N  0.25184969  0.96779468  0.71949750    -0.06220
N1516       N  0.25459335  0.94276271  0.72655992    -0.60530
N1517       N  0.23502212  0.53386980  0.70286432    -0.05200
N1518       N  0.24448886  0.56119573  0.70375338    -0.57710
Mn1519     Mn  0.25889199  0.97242393  0.69471592     1.20190
Mn1520     Mn  0.18691602  0.51216987  0.71402810     1.10090
Cl1521     Cl  0.18423575  0.97469467  0.69394150    -0.85680
C1522       C  0.27965507  0.56259816  0.69683248     0.96650
C1523       C  0.23053059  0.94498741  0.73862568     0.96450
N1524       N  0.39006895  0.85095627  0.83511116    -0.05840
N1525       N  0.41821215  0.86126532  0.84391484    -0.57960
N1526       N  0.36070230  0.78952111  0.82005459    -0.05520
N1527       N  0.37143376  0.76246346  0.82163098    -0.60090
N1528       N  0.38700086  0.80344814  0.81202447    -0.05120
N1529       N  0.41572005  0.78651952  0.80785537    -0.57930
N1530       N  0.36285607  0.83782212  0.84323424    -0.04790
N1531       N  0.37211129  0.83896605  0.85775556    -0.60440
C1532       C  0.40626998  0.85395480  0.85794387     0.96340
C1533       C  0.40548784  0.76108749  0.81373256     0.96120
N1534       N  0.23937792  0.80640796  0.81165157    -0.06020
N1535       N  0.21211667  0.78865435  0.80642077    -0.58540
N1536       N  0.26773813  0.83693572  0.84429515    -0.04140
N1537       N  0.25848806  0.83492744  0.85881025    -0.59790
N1538       N  0.24020828  0.85101960  0.83684632    -0.06050
N1539       N  0.21204161  0.85901753  0.84616897    -0.58800
N1540       N  0.26654081  0.79203995  0.81928061    -0.03790
N1541       N  0.25837982  0.76442026  0.81923490    -0.59880
Mn1542     Mn  0.31436973  0.81347980  0.83214001     1.18440
C1543       C  0.22472836  0.76265566  0.81110382     0.98420
C1544       C  0.22398846  0.84913898  0.85982335     0.99080
N1545       N  0.37972178  0.84483630  0.78553200    -0.06070
N1546       N  0.38214065  0.81997280  0.77838444    -0.62380
N1547       N  0.36465651  0.91104122  0.80226409    -0.04880
N1548       N  0.37401761  0.93844452  0.80162788    -0.63060
N1549       N  0.39264860  0.89630180  0.80882540    -0.05580
N1550       N  0.42189746  0.91339193  0.81298906    -0.62650
N1551       N  0.35414201  0.86134710  0.77848546    -0.04480
N1552       N  0.33987521  0.84811089  0.76638989    -0.63340
Mn1553     Mn  0.38864505  0.84937967  0.81025045     1.10660
C1554       C  0.35733599  0.82242124  0.76641323     0.99640
C1555       C  0.40957983  0.93955967  0.80847738     0.99720
N1556       N  0.24387232  0.90015419  0.81250012    -0.05590
N1557       N  0.21714631  0.91771811  0.81770550    -0.60960
N1558       N  0.26899613  0.86796012  0.77982542    -0.04910
N1559       N  0.26238812  0.87730599  0.76610346    -0.57690
N1560       N  0.23638424  0.86008044  0.78654038    -0.06220
N1561       N  0.20620346  0.86733631  0.77759816    -0.60530
N1562       N  0.27123399  0.91404725  0.80485600    -0.05200
N1563       N  0.26310666  0.94172305  0.80465324    -0.57710
Mn1564     Mn  0.23882208  0.85402928  0.81182559     1.20190
Mn1565     Mn  0.31547184  0.88937475  0.79149894     1.10090
Cl1566     Cl  0.31401031  0.85166071  0.81182098    -0.85680
C1567       C  0.22969043  0.94347637  0.81294951     0.96650
C1568       C  0.22349668  0.87737681  0.76466962     0.96450
C1569       C  0.21559695  0.92063436  0.74716517    -0.12990
C1570       C  0.20888671  0.89952360  0.75482043    -0.14550
C1571       C  0.08445405  0.52552577  0.75067044    -0.12990
C1572       C  0.09189468  0.54675420  0.75812152    -0.14550
C1573       C  0.45166874  0.98712536  0.81012297    -0.12990
C1574       C  0.43283807  0.96522095  0.80950541    -0.14550
C1575       C  0.20239872  0.73665029  0.80955192    -0.12990
C1576       C  0.18357844  0.71473350  0.80891140    -0.14550
C1577       C  0.18094548  0.98682517  0.81440889    -0.12990
C1578       C  0.20499647  0.96807214  0.81384870    -0.14550
C1579       C  0.45588850  0.71856781  0.81304426    -0.12990
C1580       C  0.43179962  0.73730043  0.81360881    -0.14550
C1581       C  0.33445592  0.77689066  0.75045145    -0.12990
C1582       C  0.34201793  0.79817560  0.75784533    -0.14550
C1583       C  0.05327829  0.83806030  0.69651087    -0.12990
C1584       C  0.07209862  0.85995739  0.69636645    -0.14550
C1585       C  0.32184316  0.61010394  0.69630604    -0.12990
C1586       C  0.30309486  0.58816566  0.69635493    -0.14550
C1587       C  0.32533594  0.84133752  0.69220980    -0.12990
C1588       C  0.30135744  0.86014915  0.69167701    -0.14550
C1589       C  0.07505401  0.59119592  0.69231692    -0.12990
C1590       C  0.05114687  0.61006632  0.69187929    -0.14550
C1591       C  0.45869666  0.64966456  0.75509139    -0.12990
C1592       C  0.96544273  0.67087594  0.74753302    -0.14550
C1593       C  0.06874434  0.72444081  0.62320575    -0.12990
C1594       C  0.04833791  0.72630236  0.63421231    -0.14550
C1595       C  0.29276651  0.71804588  0.62265609    -0.12990
C1596       C  0.31458614  0.72005624  0.63351914    -0.14550
C1597       C  0.31838087  0.97304749  0.62268041    -0.12990
C1598       C  0.29818896  0.97522473  0.63374218    -0.14550
C1599       C  0.04231635  0.96769309  0.62251227    -0.12990
C1600       C  0.06406175  0.96970497  0.63340097    -0.14550
C1601       C  0.05929796  0.82884530  0.55934023    -0.12990
C1602       C  0.04011689  0.85054860  0.55974044    -0.14550
C1603       C  0.28797385  0.59925924  0.56048008    -0.12990
C1604       C  0.30728309  0.57763215  0.55986376    -0.14550
C1605       C  0.03338249  0.58041231  0.56225907    -0.12990
C1606       C  0.05752527  0.59920610  0.56341162    -0.14550
C1607       C  0.30979635  0.84802623  0.56244669    -0.12990
C1608       C  0.28569306  0.82918849  0.56146431    -0.14550
C1609       C  0.24707278  0.80152614  0.50533468    -0.12990
C1610       C  0.25219330  0.77837704  0.51119471    -0.14550
C1611       C  0.38614626  0.89387872  0.49723856    -0.12990
C1612       C  0.37519101  0.91313036  0.50540280    -0.14550
C1613       C  0.99751860  0.53087883  0.51090283    -0.12990
C1614       C  0.49139665  0.55350185  0.50458334    -0.14550
C1615       C  0.46500190  0.70809371  0.44393144    -0.12990
C1616       C  0.44498746  0.72925613  0.44375568    -0.14550
C1617       C  0.21416940  0.95775307  0.44562796    -0.12990
C1618       C  0.19412841  0.97887060  0.44536953    -0.14550
C1619       C  0.44200273  0.95853497  0.44084059    -0.12990
C1620       C  0.46520576  0.97783084  0.44287227    -0.14550
C1621       C  0.19354144  0.70810712  0.44245884    -0.12990
C1622       C  0.21671578  0.72744671  0.44440797    -0.14550
C1623       C  0.13286563  0.64234193  0.49880784    -0.12990
C1624       C  0.12242158  0.66206985  0.50670127    -0.14550
C1625       C  0.42697393  0.59874159  0.88383333    -0.12990
C1626       C  0.44873830  0.59990455  0.87301226    -0.14550
C1627       C  0.18101625  0.60666757  0.87104503    -0.12990
C1628       C  0.20159153  0.60572832  0.88214243    -0.14550
C1629       C  0.17805895  0.84868933  0.88413368    -0.12990
C1630       C  0.19956639  0.84953345  0.87321624    -0.14550
C1631       C  0.45123069  0.85632379  0.88220015    -0.12990
C1632       C  0.43062091  0.85686755  0.87110028    -0.14550
C1633       C  0.42276834  0.98286153  0.94605714    -0.12990
C1634       C  0.44223686  0.96129877  0.94641724    -0.14550
C1635       C  0.17125116  0.73202425  0.94553964    -0.12990
C1636       C  0.19073910  0.71049698  0.94582212    -0.14550
C1637       C  0.41688271  0.71278420  0.94346532    -0.12990
C1638       C  0.44075089  0.73174879  0.94220017    -0.14550
C1639       C  0.16816734  0.96205230  0.94453271    -0.12990
C1640       C  0.19199062  0.98103159  0.94315586    -0.14550
C1641       C  0.25609639  0.54493542  0.99945997    -0.12990
C1642       C  0.26655681  0.52527979  0.00755420    -0.14550
C1643       C  0.12612378  0.93033840  0.00285904    -0.12990
C1644       C  0.13250013  0.90757158  0.99686154    -0.14550
C1645       C  0.38159490  0.66197698  0.99496231    -0.12990
C1646       C  0.37579988  0.68466720  0.00111620    -0.14550
C1647       C  0.07987287  0.61018515  0.06208288    -0.12990
C1648       C  0.09977857  0.58892187  0.06212301    -0.14550
C1649       C  0.34762377  0.83809498  0.06079058    -0.12990
C1650       C  0.32764991  0.85926986  0.06068451    -0.14550
C1651       C  0.35126582  0.60783387  0.06287010    -0.12990
C1652       C  0.32813143  0.58849304  0.06472378    -0.14550
C1653       C  0.09929814  0.85859434  0.06210205    -0.12990
C1654       C  0.07584903  0.83944110  0.06411494    -0.14550
C1655       C  0.01558031  0.77432071  0.00757070    -0.12990
C1656       C  0.00508911  0.79384363  0.99935953    -0.14550
C1657       C  0.06505026  0.71182481  0.12479828    -0.12990
C1658       C  0.08651611  0.70671026  0.13530363    -0.14550
C1659       C  0.33707374  0.71299572  0.12033743    -0.12990
C1660       C  0.31578666  0.70765753  0.13102840    -0.14550
C1661       C  0.33729896  0.95444507  0.13494383    -0.12990
C1662       C  0.31567394  0.95819136  0.12431573    -0.14550
C1663       C  0.07316114  0.95621713  0.13191449    -0.12990
C1664       C  0.09409893  0.96062992  0.12110027    -0.14550
C1665       C  0.09600651  0.58100600  0.19724169    -0.12990
C1666       C  0.07728986  0.55873934  0.19738878    -0.14550
C1667       C  0.33953516  0.83422708  0.19273954    -0.12990
C1668       C  0.32101505  0.81208574  0.19266511    -0.14550
C1669       C  0.34364573  0.56239421  0.19078365    -0.12990
C1670       C  0.32007529  0.58137195  0.18991343    -0.14550
C1671       C  0.07043084  0.83013586  0.19542875    -0.12990
C1672       C  0.09563129  0.81223527  0.19632705    -0.14550
C1673       C  0.41450127  0.82604281  0.37956800    -0.12990
C1674       C  0.43579178  0.82220997  0.36900418    -0.14550
C1675       C  0.18097759  0.82429721  0.37650404    -0.12990
C1676       C  0.20371691  0.82881432  0.38683962    -0.14550
C1677       C  0.11912830  0.78774357  0.25000426    -0.12990
C1678       C  0.11375996  0.76522627  0.24334522    -0.14550
C1679       C  0.04163716  0.84767834  0.24648358    -0.12990
C1680       C  0.05171762  0.86939632  0.23977970    -0.14550
C1681       C  0.46024946  0.57988090  0.38431012    -0.12990
C1682       C  0.43940697  0.57504011  0.37337898    -0.14550
C1683       C  0.20121508  0.57450228  0.37200877    -0.12990
C1684       C  0.17944548  0.57841626  0.38238920    -0.14550
C1685       C  0.26240635  0.62199558  0.25603354    -0.12990
C1686       C  0.26768289  0.64275124  0.24796280    -0.14550
C1687       C  0.43682821  0.68149307  0.31102494    -0.12990
C1688       C  0.45647216  0.70312562  0.31138254    -0.14550
C1689       C  0.17871672  0.93679387  0.31560695    -0.12990
C1690       C  0.19807527  0.95846884  0.31462831    -0.14550
C1691       C  0.21040433  0.68993611  0.31801842    -0.12990
C1692       C  0.18731363  0.70942507  0.31885311    -0.14550
C1693       C  0.44331334  0.92858133  0.31272390    -0.12990
C1694       C  0.41961499  0.94788488  0.31225325    -0.14550
C1695       C  0.42290605  0.52021879  0.25642695    -0.12990
C1696       C  0.42090643  0.49884031  0.24872559    -0.14550
N1697       N  0.74683855  0.07802148  0.28751694    -0.05840
N1698       N  0.73648527  0.10072736  0.27947405    -0.57960
N1699       N  0.76357245  0.01242846  0.30385169    -0.05520
N1700       N  0.75437410  0.48496257  0.30421486    -0.60090
N1701       N  0.73723589  0.02756041  0.31100926    -0.05120
N1702       N  0.70936704  0.01066013  0.31651549    -0.57930
N1703       N  0.77271488  0.06273791  0.28008272    -0.04790
N1704       N  0.78028540  0.07498022  0.26685290    -0.60440
C1705       C  0.75700822  0.09834729  0.26651147     0.96340
C1706       C  0.72071535  0.48419562  0.31223134     0.96120
N1707       N  0.88547144  0.01810881  0.31267951    -0.06020
N1708       N  0.91150434  0.49898674  0.31716849    -0.58540
N1709       N  0.86050045  0.05265271  0.28035122    -0.04140
N1710       N  0.86760796  0.04251542  0.26684505    -0.59790
N1711       N  0.89329862  0.06006892  0.28733867    -0.06050
N1712       N  0.92358667  0.05254649  0.27875856    -0.58800
N1713       N  0.85671556  0.50584604  0.30488597    -0.03790
N1714       N  0.86301328  0.47792263  0.30396653    -0.59880
Mn1715     Mn  0.81268757  0.03293050  0.29225292     1.18440
C1716       C  0.89696510  0.47401663  0.31189170     0.98420
C1717       C  0.90672938  0.04219914  0.26584658     0.99080
N1718       N  0.74403325  0.07284768  0.33681895    -0.06070
N1719       N  0.71465937  0.06519171  0.34560916    -0.62380
N1720       N  0.77670012  0.13338736  0.32164595    -0.04880
N1721       N  0.76903149  0.16078696  0.32380920    -0.63060
N1722       N  0.74787405  0.12117993  0.31400325    -0.05580
N1723       N  0.72017761  0.13996649  0.31075445    -0.62650
N1724       N  0.77254702  0.08501925  0.34474841    -0.04480
N1725       N  0.76283879  0.08593991  0.35917956    -0.63340
Mn1726     Mn  0.74288636  0.07454846  0.31221979     1.10660
C1727       C  0.72710998  0.07303930  0.35946903     0.99640
C1728       C  0.73402296  0.16458781  0.31673499     0.99720
N1729       N  0.89593877  0.11258258  0.31263726    -0.05590
N1730       N  0.92401340  0.12970600  0.30745934    -0.60960
N1731       N  0.86729030  0.08241366  0.34517074    -0.04910
N1732       N  0.87842118  0.08608187  0.35940865    -0.57690
N1733       N  0.89383729  0.06755594  0.33779020    -0.06220
N1734       N  0.92343410  0.06089874  0.34697967    -0.60530
N1735       N  0.86992536  0.12757708  0.32030753    -0.05200
N1736       N  0.87961491  0.15493624  0.32035774    -0.57710
Mn1737     Mn  0.89308616  0.06479072  0.31261591     1.20190
Mn1738     Mn  0.82174669  0.10739566  0.33324858     1.10090
Cl1739     Cl  0.81796966  0.06981732  0.31281457    -0.85680
C1740       C  0.91300759  0.15600309  0.31221357     0.96650
C1741       C  0.91308686  0.07221728  0.36046357     0.96290
N1742       N  0.52227352  0.38173839  0.30710574    -0.05840
N1743       N  0.99394135  0.39771229  0.30122453    -0.57960
N1744       N  0.61128983  0.38206931  0.32315271    -0.05520
N1745       N  0.63616969  0.40154239  0.32839837    -0.60090
N1746       N  0.61310762  0.38079714  0.30825554    -0.05120
N1747       N  0.63910390  0.39950498  0.30310949    -0.57930
N1748       N  0.52078360  0.38226912  0.32195797    -0.04790
N1749       N  0.99155124  0.39864142  0.32652761    -0.60440
C1750       C  0.97489809  0.40792647  0.31346789     0.96340
C1751       C  0.65359987  0.41189793  0.31579087     0.96120
N1752       N  0.60760416  0.30693632  0.34985226    -0.06020
N1753       N  0.63475848  0.29795229  0.35957522    -0.58540
N1754       N  0.51754534  0.33472926  0.34675395    -0.04140
N1755       N  0.98699377  0.34497666  0.35401788    -0.59790
N1756       N  0.51692204  0.30656705  0.34694627    -0.06050
N1757       N  0.98599058  0.29704680  0.35445093    -0.58800
N1758       N  0.60780358  0.33510949  0.34918416    -0.03790
N1759       N  0.63480025  0.34580763  0.35839347    -0.59880
Mn1760     Mn  0.56454147  0.35916576  0.33566823     1.18440
C1761       C  0.65153663  0.32249913  0.36468764     0.98420
C1762       C  0.96750547  0.32128540  0.35854781     0.99080
N1763       N  0.61220662  0.33093112  0.28164435    -0.06070
N1764       N  0.61502942  0.33080539  0.26659250    -0.62380
N1765       N  0.53350375  0.30794531  0.27951507    -0.04880
N1766       N  0.03674256  0.30655551  0.26449640    -0.63060
N1767       N  0.52287978  0.33416139  0.28302923    -0.05580
N1768       N  0.01349779  0.34876970  0.27081675    -0.62650
N1769       N  0.62160604  0.30524954  0.28661147    -0.04480
N1770       N  0.63639949  0.28969539  0.27574296    -0.63340
Mn1771     Mn  0.56802209  0.35710563  0.29509708     1.10660
C1772       C  0.63014723  0.30470860  0.26312431     0.99640
C1773       C  0.02430003  0.33240234  0.25923526     0.99720
N1774       N  0.52102307  0.25824826  0.32177198    -0.05590
N1775       N  0.99495451  0.23863803  0.32587726    -0.60960
N1776       N  0.61312660  0.25826962  0.31031128    -0.04910
N1777       N  0.64170278  0.24151598  0.30565201    -0.57690
N1778       N  0.61101181  0.25792406  0.32515088    -0.06220
N1779       N  0.63802681  0.24068451  0.33094539    -0.60530
N1780       N  0.52338089  0.25942390  0.30686283    -0.05200
N1781       N  0.99928400  0.24051231  0.30061002    -0.57710
Mn1782     Mn  0.56397916  0.28166503  0.33642934     1.20190
Mn1783     Mn  0.57223873  0.28266056  0.29590790     1.10090
Cl1784     Cl  0.56705978  0.32011469  0.31600091    -0.85680
C1785       C  0.98137606  0.22808546  0.31257363     0.96650
C1786       C  0.65710208  0.23090849  0.31859391     0.96450
N1787       N  0.53830100  0.43030329  0.21735677    -0.05840
N1788       N  0.56404440  0.41092011  0.22237331    -0.57960
N1789       N  0.99930818  0.38266532  0.19968284    -0.05520
N1790       N  0.00952612  0.35566946  0.20184024    -0.60090
N1791       N  0.52564371  0.39558455  0.19105366    -0.05120
N1792       N  0.55377301  0.37786729  0.18722899    -0.57930
N1793       N  0.00600124  0.42746454  0.22539258    -0.04790
N1794       N  0.51205923  0.41071189  0.23714393    -0.60440
C1795       C  0.54713610  0.39896998  0.23481304     0.96340
C1796       C  0.54308670  0.35307416  0.19375930     0.96120
N1797       N  0.87934117  0.40323246  0.19552762    -0.06020
N1798       N  0.85063951  0.38642914  0.19051249    -0.58540
N1799       N  0.91912763  0.43718028  0.22641510    -0.04140
N1800       N  0.93175906  0.45029887  0.23881218    -0.59790
N1801       N  0.89200263  0.45268451  0.21959413    -0.06050
N1802       N  0.88604587  0.47648691  0.22730133    -0.58800
N1803       N  0.90672830  0.38806553  0.20221469    -0.03790
N1804       N  0.89750247  0.36059850  0.20198456    -0.59880
Mn1805     Mn  0.95699658  0.40849952  0.21337698     1.18440
C1806       C  0.86268881  0.35990766  0.19454127     0.98420
C1807       C  0.91071003  0.47459466  0.23929104     0.99080
N1808       N  0.53155788  0.44748657  0.16776197    -0.06070
N1809       N  0.55978003  0.44095222  0.15813926    -0.62380
N1810       N  0.50938870  0.00531033  0.18721074    -0.04880
N1811       N  0.51912925  0.03268731  0.18781927    -0.63060
N1812       N  0.53620358  0.48951684  0.19423764    -0.05580
N1813       N  0.56479425  0.00619926  0.19957333    -0.62650
N1814       N  0.50455243  0.46312351  0.16098251    -0.04480
N1815       N  0.51406269  0.46763367  0.14667123    -0.63340
Mn1816     Mn  0.53349787  0.44140049  0.19259038     1.10660
C1817       C  0.54819549  0.45332051  0.14501414     0.99640
C1818       C  0.55338470  0.03304952  0.19565706     0.99720
N1819       N  0.88749710  0.99624514  0.19402439    -0.05590
N1820       N  0.85852303  0.01344310  0.19762661    -0.60960
N1821       N  0.90996360  0.46420499  0.16230378    -0.04910
N1822       N  0.89907217  0.46635779  0.14797087    -0.57690
N1823       N  0.88254199  0.45064233  0.17012393    -0.06220
N1824       N  0.85266108  0.44340673  0.16131873    -0.60530
N1825       N  0.91494549  0.01002766  0.18649540    -0.05200
N1826       N  0.90477709  0.03708940  0.18465787    -0.57710
Mn1827     Mn  0.88413314  0.45009580  0.19490659     1.20190
Mn1828     Mn  0.95988063  0.48620207  0.17395550     1.10090
Cl1829     Cl  0.95886837  0.44652668  0.19337726    -0.85680
C1830       C  0.86993650  0.03879125  0.19192725     0.96650
C1831       C  0.86371809  0.45291393  0.14756353     0.96450
N1832       N  0.63257883  0.20686695  0.22012272    -0.05840
N1833       N  0.60495060  0.22344290  0.22611625    -0.57960
N1834       N  0.66533407  0.25877564  0.20258376    -0.05520
N1835       N  0.65597081  0.28611018  0.20400894    -0.60090
N1836       N  0.63767703  0.24541220  0.19477176    -0.05120
N1837       N  0.60939655  0.26291903  0.19071623    -0.57930
N1838       N  0.66594992  0.21203222  0.22734669    -0.04790
N1839       N  0.65985039  0.22806379  0.23929318    -0.60440
C1840       C  0.62254338  0.23650265  0.23809562     0.96340
C1841       C  0.62134415  0.28816035  0.19630747     0.96120
N1842       N  0.78497601  0.24194495  0.19455677    -0.06020
N1843       N  0.81157567  0.26005270  0.18920587    -0.58540
N1844       N  0.75441514  0.20386296  0.22553135    -0.04140
N1845       N  0.74791430  0.19022722  0.23845657    -0.59790
N1846       N  0.78048539  0.18988773  0.21747870    -0.06050
N1847       N  0.79193678  0.16662156  0.22485265    -0.58800
N1848       N  0.75851803  0.25560299  0.20243128    -0.03790
N1849       N  0.76637244  0.28328943  0.20269628    -0.59880
Mn1850     Mn  0.71182188  0.23288029  0.21446855     1.18440
C1851       C  0.79926487  0.28574138  0.19429284     0.98420
C1852       C  0.77194719  0.16733624  0.23801054     0.99080
N1853       N  0.63045300  0.19795802  0.17050438    -0.06070
N1854       N  0.60185040  0.20877084  0.16218554    -0.62380
N1855       N  0.65828564  0.13754541  0.18627788    -0.04880
N1856       N  0.64989383  0.10987761  0.18624942    -0.63060
N1857       N  0.63301460  0.15148452  0.19488325    -0.05580
N1858       N  0.60686584  0.13335924  0.20063748    -0.62650
N1859       N  0.65604576  0.18455995  0.16200251    -0.04480
N1860       N  0.64497769  0.18571352  0.14763149    -0.63340
Mn1861     Mn  0.63304563  0.19949261  0.19513641     1.10660
C1862       C  0.61137714  0.20109426  0.14804523     0.99640
C1863       C  0.61813272  0.10748460  0.19532340     0.99720
N1864       N  0.78024931  0.14911953  0.19057506    -0.05590
N1865       N  0.80842779  0.13149324  0.19465329    -0.60960
N1866       N  0.75138366  0.18481765  0.15998284    -0.04910
N1867       N  0.75898695  0.18662358  0.14527560    -0.57690
N1868       N  0.77952960  0.19785501  0.16775675    -0.06220
N1869       N  0.80642629  0.20867209  0.15861492    -0.60530
N1870       N  0.75210682  0.13556646  0.18323030    -0.05200
N1871       N  0.76080725  0.10811487  0.18204372    -0.57710
Mn1872     Mn  0.78247998  0.19516238  0.19264371     1.20190
Mn1873     Mn  0.70421028  0.15996677  0.17238859     1.10090
Cl1874     Cl  0.70762060  0.19676133  0.19345292    -0.85680
C1875       C  0.79577984  0.10612410  0.18941957     0.96650
C1876       C  0.79324176  0.20179718  0.14464930     0.96450
N1877       N  0.88186576  0.22281289  0.08492525    -0.05840
N1878       N  0.85283034  0.21195420  0.09307724    -0.57960
N1879       N  0.91276208  0.28340375  0.06971278    -0.05520
N1880       N  0.90351021  0.31071984  0.07054151    -0.60090
N1881       N  0.88748242  0.26965353  0.06087213    -0.05120
N1882       N  0.86044078  0.28741737  0.05567705    -0.57930
N1883       N  0.90771146  0.23602483  0.09369655    -0.04790
N1884       N  0.89627029  0.23453812  0.10802151    -0.60440
C1885       C  0.86215907  0.21927182  0.10743440     0.96340
C1886       C  0.87125454  0.31287175  0.06163499     0.96120
N1887       N  0.53457508  0.27147894  0.06547193    -0.06020
N1888       N  0.56285725  0.28879480  0.06099098    -0.58540
N1889       N  0.00347888  0.23586445  0.09578440    -0.04140
N1890       N  0.00988071  0.23328474  0.11051205    -0.59790
N1891       N  0.53171827  0.22305143  0.08822134    -0.06050
N1892       N  0.55754764  0.21147842  0.09751002    -0.58800
N1893       N  0.00698325  0.28541204  0.07270481    -0.03790
N1894       N  0.01639483  0.31299870  0.07331163    -0.59880
Mn1895     Mn  0.95762989  0.26090556  0.08352077     1.18440
C1896       C  0.55120609  0.31452088  0.06580322     0.98420
C1897       C  0.54342739  0.21779173  0.11126862     0.99080
N1898       N  0.89198804  0.21923489  0.03466581    -0.06070
N1899       N  0.86516366  0.21468252  0.02385751    -0.62380
N1900       N  0.91817104  0.16243058  0.05343607    -0.04880
N1901       N  0.91015175  0.13461940  0.05365669    -0.63060
N1902       N  0.88928313  0.17642602  0.05990527    -0.05580
N1903       N  0.86155979  0.15896326  0.06470280    -0.62650
N1904       N  0.92630176  0.21162591  0.02941577    -0.04480
N1905       N  0.92459737  0.20553798  0.01504480    -0.63340
Mn1906     Mn  0.88646159  0.22240206  0.05992962     1.10660
C1907       C  0.88669344  0.20664301  0.01154677     0.99640
C1908       C  0.87494007  0.13306651  0.06088045     0.99720
N1909       N  0.53917587  0.17850513  0.06216465    -0.05590
N1910       N  0.56758047  0.16125186  0.06674608    -0.60960
N1911       N  0.01145760  0.21402317  0.03081545    -0.04910
N1912       N  0.00428007  0.22611800  0.01752831    -0.57690
N1913       N  0.53553004  0.23017695  0.03879297    -0.06220
N1914       N  0.54423254  0.25379477  0.03108830    -0.60530
N1915       N  0.01231852  0.16414116  0.05462181    -0.05200
N1916       N  0.02176248  0.13687104  0.05368563    -0.57710
Mn1917     Mn  0.53628258  0.22552691  0.06364844     1.20190
Mn1918     Mn  0.96728465  0.18715433  0.04223022     1.10090
Cl1919     Cl  0.96151301  0.22394272  0.06273317    -0.85680
C1920       C  0.55598785  0.13539039  0.06147877     0.96650
C1921       C  0.52499944  0.25071436  0.01771029     0.96450
N1922       N  0.63433919  0.47244645  0.08522950    -0.05840
N1923       N  0.60652655  0.46076497  0.09366843    -0.57960
N1924       N  0.66467254  0.03345626  0.07022479    -0.05520
N1925       N  0.65577652  0.06081563  0.07132144    -0.60090
N1926       N  0.63875924  0.02006671  0.06149073    -0.05120
N1927       N  0.61166653  0.03815164  0.05663985    -0.57930
N1928       N  0.66087206  0.48536156  0.09379800    -0.04790
N1929       N  0.65130611  0.48287152  0.10825647    -0.60440
C1930       C  0.61758034  0.46728181  0.10795627     0.96340
C1931       C  0.62306558  0.06341467  0.06269324     0.96120
N1932       N  0.78631854  0.02075675  0.06540959    -0.06020
N1933       N  0.81477406  0.03804083  0.06106064    -0.58540
N1934       N  0.75540912  0.48446442  0.09548792    -0.04140
N1935       N  0.76138048  0.48089228  0.11017777    -0.59790
N1936       N  0.78320867  0.47149855  0.08778229    -0.06050
N1937       N  0.80840993  0.45885797  0.09695337    -0.58800
N1938       N  0.75898129  0.03464787  0.07279531    -0.03790
N1939       N  0.76868749  0.06212047  0.07367773    -0.59880
Mn1940     Mn  0.70989595  0.01027257  0.08358047     1.18440
C1941       C  0.80341418  0.06365657  0.06615287     0.98420
C1942       C  0.79421371  0.46462147  0.11078978     0.99080
N1943       N  0.64105255  0.46968823  0.03492464    -0.06070
N1944       N  0.61385798  0.46197063  0.02478046    -0.62380
N1945       N  0.66713292  0.41294847  0.05281849    -0.04880
N1946       N  0.65839030  0.38521957  0.05266971    -0.63060
N1947       N  0.63904389  0.42686396  0.05981072    -0.05580
N1948       N  0.61113648  0.40950138  0.06455848    -0.62650
N1949       N  0.67563865  0.46392329  0.02926775    -0.04480
N1950       N  0.67313707  0.45679349  0.01503209    -0.63340
Mn1951     Mn  0.63712096  0.47271487  0.06023968     1.10660
C1952       C  0.63491933  0.45439319  0.01228464     0.99640
C1953       C  0.62354439  0.38366496  0.06018853     0.99720
N1954       N  0.78862416  0.42792031  0.06123735    -0.05590
N1955       N  0.81662181  0.41022238  0.06565995    -0.60960
N1956       N  0.76094439  0.46465682  0.03038043    -0.04910
N1957       N  0.75391462  0.47714630  0.01719493    -0.57690
N1958       N  0.78571267  0.48019300  0.03839046    -0.06220
N1959       N  0.79507829  0.50381124  0.03081258    -0.60530
N1960       N  0.76131604  0.41409435  0.05363774    -0.05200
N1961       N  0.77007225  0.38673319  0.05250441    -0.57710
Mn1962     Mn  0.78709262  0.47481467  0.06318712     1.20190
Mn1963     Mn  0.71639985  0.43799489  0.04164227     1.10090
Cl1964     Cl  0.71229873  0.47391437  0.06252779    -0.85680
C1965       C  0.80433597  0.38467576  0.06023403     0.96650
C1966       C  0.77548879  0.50133843  0.01747722     0.96450
N1967       N  0.48490632  0.33926264  0.96861193    -0.05840
N1968       N  0.97572036  0.31563388  0.97623865    -0.57960
N1969       N  0.50792409  0.40556968  0.95342531    -0.05520
N1970       N  0.49940244  0.43299065  0.95466873    -0.60090
N1971       N  0.48047617  0.39198070  0.94577166    -0.05120
N1972       N  0.95252404  0.40991634  0.94149711    -0.57930
N1973       N  0.51043691  0.35447659  0.97643187    -0.04790
N1974       N  0.51821910  0.34182532  0.98951387    -0.60440
C1975       C  0.49624364  0.31782020  0.98939939     0.96340
C1976       C  0.96499647  0.43539502  0.94703133     0.96120
N1977       N  0.62820647  0.39405143  0.94486438    -0.06020
N1978       N  0.65550083  0.41191586  0.94015171    -0.58540
N1979       N  0.59612440  0.35471404  0.97668674    -0.04140
N1980       N  0.59824974  0.36627979  0.99014089    -0.59790
N1981       N  0.63065096  0.35448100  0.97015700    -0.06050
N1982       N  0.65394396  0.37234448  0.97782403    -0.58800
N1983       N  0.60128310  0.40708990  0.95293342    -0.03790
N1984       N  0.60998926  0.43473307  0.95375301    -0.59880
Mn1985     Mn  0.55394385  0.38125949  0.96481510     1.18440
C1986       C  0.64359916  0.43716391  0.94555196     0.98420
C1987       C  0.63291733  0.37941392  0.99033390     0.99080
N1988       N  0.48553617  0.34749820  0.91893574    -0.06070
N1989       N  0.95966035  0.35905449  0.90960349    -0.62380
N1990       N  0.51072595  0.28492449  0.93445595    -0.04880
N1991       N  0.50079826  0.25750881  0.93361847    -0.63060
N1992       N  0.48339015  0.29901023  0.94173337    -0.05580
N1993       N  0.95482156  0.28188930  0.94612051    -0.62650
N1994       N  0.51316656  0.33405442  0.91132524    -0.04480
N1995       N  0.50651259  0.33632726  0.89662762    -0.63340
Mn1996     Mn  0.48231585  0.34487738  0.94372773     1.10660
C1997       C  0.97345684  0.35224951  0.89580947     0.99640
C1998       C  0.46609231  0.25619737  0.94114070     0.99720
N1999       N  0.63170720  0.30092171  0.94481379    -0.05590
N2000       N  0.65928372  0.28337090  0.94985049    -0.60960
N2001       N  0.60776019  0.33257075  0.91196187    -0.04910
N2002       N  0.61838336  0.33170584  0.89756601    -0.57690
N2003       N  0.63438582  0.34650226  0.91999952    -0.06220
N2004       N  0.66337461  0.35552593  0.91122819    -0.60530
N2005       N  0.60543072  0.28666137  0.93662958    -0.05200
N2006       N  0.61457974  0.25927518  0.93609339    -0.57710
Mn2007     Mn  0.63216663  0.34852679  0.94499378     1.20190
Mn2008     Mn  0.55925749  0.30875683  0.92315404     1.10090
Cl2009     Cl  0.55705035  0.34602274  0.94367857    -0.85680
C2010       C  0.64783223  0.25753133  0.94448748     0.96650
C2011       C  0.65285312  0.34639809  0.89727376     0.96450
N2012       N  0.73519056  0.08967484  0.96860014    -0.05840
N2013       N  0.72618257  0.06623379  0.97639635    -0.57960
N2014       N  0.75731653  0.15548703  0.95291232    -0.05520
N2015       N  0.74842270  0.18285446  0.95401202    -0.60090
N2016       N  0.72994261  0.14152354  0.94540426    -0.05120
N2017       N  0.70165540  0.15914852  0.94109873    -0.57930
N2018       N  0.76080427  0.10512859  0.97626667    -0.04790
N2019       N  0.76887692  0.09277063  0.98939858    -0.60440
C2020       C  0.74692660  0.06874963  0.98947718     0.96340
C2021       C  0.71387566  0.18482441  0.94644893     0.96120
N2022       N  0.87735318  0.14468924  0.94408544    -0.06020
N2023       N  0.90439434  0.16259792  0.93920624    -0.58540
N2024       N  0.84679042  0.10627788  0.97644901    -0.04140
N2025       N  0.84890186  0.11914084  0.98957288    -0.59790
N2026       N  0.88107273  0.10627445  0.96970748    -0.06050
N2027       N  0.90367001  0.12553425  0.97669886    -0.58800
N2028       N  0.85049046  0.15776325  0.95216908    -0.03790
N2029       N  0.85896652  0.18545124  0.95282880    -0.59880
Mn2030     Mn  0.80385036  0.13198294  0.96442708     1.18440
C2031       C  0.89235743  0.18789230  0.94450708     0.98420
C2032       C  0.88279127  0.13330169  0.98910772     0.99080
N2033       N  0.73529182  0.09648933  0.91892042    -0.06070
N2034       N  0.70958003  0.10811039  0.90954904    -0.62380
N2035       N  0.76130741  0.03441805  0.93487037    -0.04880
N2036       N  0.75171738  0.00691025  0.93427971    -0.63060
N2037       N  0.73386381  0.04852553  0.94207106    -0.05580
N2038       N  0.70556640  0.03135066  0.94665172    -0.62650
N2039       N  0.76302517  0.08306899  0.91136847    -0.04480
N2040       N  0.75662510  0.08540591  0.89665653    -0.63340
Mn2041     Mn  0.73226038  0.09441322  0.94369223     1.10660
C2042       C  0.72357909  0.10133572  0.89578538     0.99640
C2043       C  0.71710768  0.00558571  0.94187627     0.99720
N2044       N  0.88228681  0.05153086  0.94490122    -0.05590
N2045       N  0.91019984  0.03430801  0.94999899    -0.60960
N2046       N  0.85739651  0.08217264  0.91184662    -0.04910
N2047       N  0.86779308  0.08120856  0.89742607    -0.57690
N2048       N  0.88386541  0.09648874  0.91974699    -0.06220
N2049       N  0.91250731  0.10571736  0.91088320    -0.60530
N2050       N  0.85608662  0.03686566  0.93688289    -0.05200
N2051       N  0.86561576  0.00953175  0.93652912    -0.57710
Mn2052     Mn  0.88200039  0.09917420  0.94464582     1.20190
Mn2053     Mn  0.80943552  0.05834993  0.92333222     1.10090
Cl2054     Cl  0.80689203  0.09610632  0.94376960    -0.85680
C2055       C  0.89903506  0.00823337  0.94485529     0.96650
C2056       C  0.90195750  0.09627858  0.89700390     0.96450
N2057       N  0.64816016  0.09185715  0.41866048    -0.05840
N2058       N  0.67293058  0.07908498  0.40958066    -0.57960
N2059       N  0.62423489  0.15444648  0.43386231    -0.05520
N2060       N  0.63393671  0.18195664  0.43317359    -0.60090
N2061       N  0.65165807  0.14031822  0.44127520    -0.05120
N2062       N  0.68015232  0.15747982  0.44581557    -0.57930
N2063       N  0.62026759  0.10498763  0.41090888    -0.04790
N2064       N  0.62575485  0.10143912  0.39624166    -0.60440
C2065       C  0.65838059  0.08498012  0.39575090     0.96340
C2066       C  0.66874756  0.18327917  0.44083267     0.96120
N2067       N  0.00421135  0.13942434  0.44463446    -0.06020
N2068       N  0.97713159  0.15734921  0.44944361    -0.58540
N2069       N  0.52583165  0.10562868  0.41217821    -0.04140
N2070       N  0.51660112  0.10303252  0.39764324    -0.59790
N2071       N  0.99936136  0.09244607  0.42058943    -0.06050
N2072       N  0.97194210  0.08049240  0.41194838    -0.58800
N2073       N  0.53001518  0.15305936  0.43604367    -0.03790
N2074       N  0.52108752  0.18042384  0.43500267    -0.59880
Mn2075     Mn  0.57498176  0.13035998  0.42273928     1.18440
C2076       C  0.98847177  0.18275910  0.44351926     0.98420
C2077       C  0.98311924  0.08712522  0.39769998     0.99080
N2078       N  0.65184288  0.09834315  0.46789703    -0.06070
N2079       N  0.66136724  0.12163063  0.47566207    -0.62380
N2080       N  0.62711368  0.03305329  0.45198029    -0.04880
N2081       N  0.63608592  0.50571925  0.45304607    -0.63060
N2082       N  0.65440478  0.04726103  0.44466361    -0.05580
N2083       N  0.68263434  0.02983769  0.44035547    -0.62650
N2084       N  0.62717909  0.08247762  0.47570695    -0.04480
N2085       N  0.62035227  0.09445946  0.48895822    -0.63340
Mn2086     Mn  0.65260008  0.09422583  0.44314670     1.10660
C2087       C  0.64196712  0.11864560  0.48890636     0.99640
C2088       C  0.67045221  0.50406346  0.44555475     0.99720
N2089       N  0.00452186  0.04612361  0.44585905    -0.05590
N2090       N  0.97652427  0.02892477  0.44094351    -0.60960
N2091       N  0.54182659  0.08114172  0.47655261    -0.04910
N2092       N  0.54002624  0.07487769  0.49091493    -0.57690
N2093       N  0.00749979  0.08865395  0.47106225    -0.06220
N2094       N  0.98059185  0.08370562  0.48168625    -0.60530
N2095       N  0.53302518  0.03187613  0.45260903    -0.05200
N2096       N  0.52446123  0.50413503  0.45245466    -0.57710
Mn2097     Mn  0.00257566  0.09209566  0.44568401     1.20190
Mn2098     Mn  0.58245752  0.05624282  0.46407309     1.10090
Cl2099     Cl  0.57775660  0.09327157  0.44358278    -0.85680
C2100       C  0.98931103  0.50288963  0.44498474     0.96650
C2101       C  0.00207638  0.07564071  0.49415442     0.96450
N2102       N  0.89364296  0.34168023  0.41688526    -0.05840
N2103       N  0.91537096  0.32789055  0.40704965    -0.57960
N2104       N  0.87247911  0.40465831  0.43282325    -0.05520
N2105       N  0.88172458  0.43226418  0.43223582    -0.60090
N2106       N  0.90105643  0.39046770  0.43949012    -0.05120
N2107       N  0.92993037  0.40764579  0.44362862    -0.57930
N2108       N  0.86448037  0.35500283  0.40997232    -0.04790
N2109       N  0.86584298  0.35054687  0.39523159    -0.60440
C2110       C  0.89740627  0.33336801  0.39370538     0.96340
C2111       C  0.91756975  0.43353260  0.43916112     0.96120
N2112       N  0.75412342  0.38937960  0.44608656    -0.06020
N2113       N  0.72742385  0.40723173  0.45126545    -0.58540
N2114       N  0.77163147  0.35563828  0.41335789    -0.04140
N2115       N  0.76096617  0.35261741  0.39900621    -0.59790
N2116       N  0.74652060  0.34225348  0.42225771    -0.06050
N2117       N  0.71852475  0.32974531  0.41415401    -0.58800
N2118       N  0.77884270  0.40305980  0.43705782    -0.03790
N2119       N  0.76956865  0.43034956  0.43606722    -0.59880
Mn2120     Mn  0.82174074  0.38048474  0.42284823     1.18440
C2121       C  0.73792382  0.43262446  0.44509445     0.98420
C2122       C  0.72802919  0.33624112  0.39972102     0.99080
N2123       N  0.90412335  0.34922263  0.46633047    -0.06070
N2124       N  0.91331913  0.37302266  0.47375344    -0.62380
N2125       N  0.87831629  0.28335422  0.45117979    -0.04880
N2126       N  0.88775296  0.25610475  0.45229825    -0.63060
N2127       N  0.90440688  0.29747759  0.44320075    -0.05580
N2128       N  0.93225339  0.28006269  0.43851264    -0.62650
N2129       N  0.88083902  0.33317252  0.47467533    -0.04480
N2130       N  0.87488329  0.34546998  0.48791092    -0.63340
Mn2131     Mn  0.90211223  0.34443863  0.44144750     1.10660
C2132       C  0.89535703  0.37012372  0.48732521     0.99640
C2133       C  0.92109253  0.25437288  0.44416019     0.99720
N2134       N  0.75510553  0.29602696  0.44730704    -0.05590
N2135       N  0.72686303  0.27869334  0.44274846    -0.60960
N2136       N  0.79555195  0.33106440  0.47733999    -0.04910
N2137       N  0.79484687  0.32409304  0.49164122    -0.57690
N2138       N  0.76071601  0.33860347  0.47234865    -0.06220
N2139       N  0.73468895  0.33300056  0.48318758    -0.60530
N2140       N  0.78453281  0.28188278  0.45349979    -0.05200
N2141       N  0.77640831  0.25407725  0.45331162    -0.57710
Mn2142     Mn  0.75284871  0.34201984  0.44716687     1.20190
Mn2143     Mn  0.83504129  0.30649842  0.46403986     1.10090
Cl2144     Cl  0.82755261  0.34339607  0.44359200    -0.85680
C2145       C  0.74047779  0.25269475  0.44642620     0.96650
C2146       C  0.75709773  0.32442089  0.49528583     0.96450
N2147       N  0.99817866  0.47468742  0.53622228    -0.05840
N2148       N  0.52026285  0.49445672  0.52940793    -0.57960
N2149       N  0.96684035  0.02546901  0.55363245    -0.05520
N2150       N  0.97527649  0.05315513  0.55288815    -0.60090
N2151       N  0.99376691  0.01243641  0.56188484    -0.05120
N2152       N  0.52078040  0.03036919  0.56681396    -0.57930
N2153       N  0.96393374  0.47437260  0.52929172    -0.04790
N2154       N  0.96576034  0.48753204  0.51620072    -0.60440
C2155       C  0.49924694  0.50217512  0.51688258     0.96340
C2156       C  0.00866530  0.05563527  0.56136107     0.96120
N2157       N  0.84635882  0.00848216  0.55959025    -0.06020
N2158       N  0.81811924  0.02591991  0.56396692    -0.58540
N2159       N  0.87816679  0.47278973  0.52885968    -0.04140
N2160       N  0.88669061  0.46084394  0.51574947    -0.59790
N2161       N  0.85284999  0.45686361  0.53631581    -0.06050
N2162       N  0.84455250  0.43345753  0.52840555    -0.58800
N2163       N  0.87365973  0.02277172  0.55230885    -0.03790
N2164       N  0.86475202  0.05020022  0.55142566    -0.59880
Mn2165     Mn  0.92059624  0.99961175  0.54108823     1.18440
C2166       C  0.83023532  0.05184865  0.55887670     0.98420
C2167       C  0.86538789  0.43653357  0.51545909     0.99080
N2168       N  0.00061083  0.46400126  0.58621684    -0.06070
N2169       N  0.52871420  0.97375066  0.59527116    -0.62380
N2170       N  0.97369898  0.40442502  0.56894173    -0.04880
N2171       N  0.98324531  0.37708508  0.56923440    -0.63060
N2172       N  0.49976694  0.41930865  0.56103806    -0.05580
N2173       N  0.52763505  0.40220479  0.55597491    -0.62650
N2174       N  0.97423884  0.44946789  0.59398475    -0.04480
N2175       N  0.98419125  0.44886207  0.60851168    -0.63340
Mn2176     Mn  0.49900284  0.46703527  0.56129562     1.10660
C2177       C  0.51797166  0.46437899  0.60912485     0.99640
C2178       C  0.51656622  0.37598951  0.56101521     0.99720
N2179       N  0.85169750  0.41541372  0.56288036    -0.05590
N2180       N  0.82350161  0.39811204  0.55827395    -0.60960
N2181       N  0.87966541  0.44969547  0.59385554    -0.04910
N2182       N  0.87311241  0.45205584  0.60852256    -0.57690
N2183       N  0.85189664  0.46300917  0.58606501    -0.06220
N2184       N  0.82604188  0.47457868  0.59522845    -0.60530
N2185       N  0.87911139  0.40145193  0.57037258    -0.05200
N2186       N  0.86961050  0.37395990  0.57114600    -0.57710
Mn2187     Mn  0.84939495  0.46132564  0.56122441     1.20190
Mn2188     Mn  0.92669345  0.42541550  0.58224115     1.10090
Cl2189     Cl  0.92402695  0.46342858  0.56193110    -0.85680
C2190       C  0.83512877  0.37245433  0.56333346     0.96650
C2191       C  0.83991116  0.46784470  0.60911443     0.96450
N2192       N  0.74817672  0.22265445  0.53644310    -0.05840
N2193       N  0.77204092  0.24104864  0.52948001    -0.57960
N2194       N  0.71797346  0.27475065  0.55345003    -0.05520
N2195       N  0.72699410  0.30230312  0.55246153    -0.60090
N2196       N  0.74477087  0.26159062  0.56171285    -0.05120
N2197       N  0.77229017  0.27934721  0.56641257    -0.57930
N2198       N  0.71398227  0.22365592  0.52946089    -0.04790
N2199       N  0.71696754  0.23658628  0.51634131    -0.60440
C2200       C  0.75176346  0.24955284  0.51693916     0.96340
C2201       C  0.76061150  0.30460688  0.56079579     0.96120
N2202       N  0.59728316  0.25936602  0.55988864    -0.06020
N2203       N  0.56936100  0.27723779  0.56407757    -0.58540
N2204       N  0.62773943  0.22253205  0.52937154    -0.04140
N2205       N  0.63569773  0.20995662  0.51637976    -0.59790
N2206       N  0.60196722  0.20731894  0.53702559    -0.06050
N2207       N  0.59269415  0.18383928  0.52936316    -0.58800
N2208       N  0.62474562  0.27311751  0.55240370    -0.03790
N2209       N  0.61627046  0.30057667  0.55120751    -0.59880
Mn2210     Mn  0.67104788  0.24927151  0.54120233     1.18440
C2211       C  0.58186861  0.30284435  0.55867411     0.98420
C2212       C  0.61346436  0.18607499  0.51637792     0.99080
N2213       N  0.75064717  0.21378957  0.58644934    -0.06070
N2214       N  0.77899034  0.22353773  0.59539746    -0.62380
N2215       N  0.72253483  0.15389983  0.56964643    -0.04880
N2216       N  0.73162340  0.12646511  0.57007212    -0.63060
N2217       N  0.74877765  0.16836138  0.56162767    -0.05580
N2218       N  0.77626224  0.15092092  0.55659409    -0.62650
N2219       N  0.72411209  0.19970848  0.59434958    -0.04480
N2220       N  0.73414673  0.19942234  0.60886910    -0.63340
Mn2221     Mn  0.74889658  0.21600024  0.56153764     1.10660
C2222       C  0.76818625  0.21465146  0.60932642     0.99640
C2223       C  0.76483653  0.12491391  0.56179179     0.99720
N2224       N  0.60047080  0.16629314  0.56377479    -0.05590
N2225       N  0.57188379  0.14922975  0.55927602    -0.60960
N2226       N  0.62980807  0.20088525  0.59441268    -0.04910
N2227       N  0.62332156  0.20333708  0.60907659    -0.57690
N2228       N  0.60223998  0.21439709  0.58662800    -0.06220
N2229       N  0.57657430  0.22619480  0.59577909    -0.60530
N2230       N  0.62777416  0.15212782  0.57121808    -0.05200
N2231       N  0.61779462  0.12472414  0.57206860    -0.57710
Mn2232     Mn  0.59919709  0.21220682  0.56187057     1.20190
Mn2233     Mn  0.67606501  0.17586285  0.58282512     1.10090
Cl2234     Cl  0.67382416  0.21343911  0.56209045    -0.85680
C2235       C  0.58311807  0.12349927  0.56436091     0.96650
C2236       C  0.59039195  0.21941769  0.60965956     0.96450
N2237       N  0.85849415  0.22396706  0.66941950    -0.05840
N2238       N  0.82927328  0.23122526  0.66023706    -0.57960
N2239       N  0.88619057  0.16536732  0.68715544    -0.05520
N2240       N  0.87786686  0.13780512  0.68709665    -0.60090
N2241       N  0.85940529  0.17967108  0.69482561    -0.05120
N2242       N  0.83215216  0.16187908  0.69996433    -0.57930
N2243       N  0.88558950  0.20986783  0.66194501    -0.04790
N2244       N  0.87503456  0.20710564  0.64756863    -0.60440
C2245       C  0.84018902  0.22088571  0.64664691     0.96340
C2246       C  0.84451920  0.13595377  0.69520757     0.96120
N2247       N  0.50715169  0.17645558  0.69347784    -0.06020
N2248       N  0.53613055  0.15942922  0.69747234    -0.58540
N2249       N  0.98062103  0.21064225  0.66234929    -0.04140
N2250       N  0.98942149  0.21070506  0.64781798    -0.59790
N2251       N  0.50848572  0.22384683  0.67019199    -0.06050
N2252       N  0.53664168  0.23310508  0.66117843    -0.58800
N2253       N  0.97999829  0.16257989  0.68577982    -0.03790
N2254       N  0.99034029  0.13547443  0.68424424    -0.59880
Mn2255     Mn  0.93292876  0.18662221  0.67394879     1.18440
C2256       C  0.52511349  0.13400209  0.69182755     0.98420
C2257       C  0.52398518  0.22514386  0.64730829     0.99080
N2258       N  0.85785999  0.23400343  0.71968144    -0.06070
N2259       N  0.82861092  0.24336391  0.72836026    -0.62380
N2260       N  0.89180784  0.28709774  0.70104667    -0.04880
N2261       N  0.88379921  0.31478213  0.70125228    -0.63060
N2262       N  0.86405871  0.27335115  0.69345669    -0.05580
N2263       N  0.83710005  0.29100862  0.68832335    -0.62650
N2264       N  0.89122413  0.24078840  0.72632754    -0.04480
N2265       N  0.88568592  0.25111337  0.73986968    -0.63340
Mn2266     Mn  0.85889290  0.22731718  0.69439209     1.10660
C2267       C  0.84694362  0.25333079  0.74114629     0.99640
C2268       C  0.84997772  0.31668618  0.69304175     0.99720
N2269       N  0.51269271  0.26934081  0.69639148    -0.05590
N2270       N  0.54185085  0.28652607  0.69232739    -0.60960
N2271       N  0.97663930  0.23427265  0.72699495    -0.04910
N2272       N  0.96311695  0.22084311  0.73912515    -0.57690
N2273       N  0.50177952  0.21787323  0.71981435    -0.06220
N2274       N  0.50458947  0.19289044  0.72691174    -0.60530
N2275       N  0.98508725  0.28390072  0.70312539    -0.05200
N2276       N  0.99459644  0.31122747  0.70395524    -0.57710
Mn2277     Mn  0.50889590  0.22241468  0.69505410     1.20190
Mn2278     Mn  0.93684507  0.26226875  0.71425362     1.10090
Cl2279     Cl  0.93425859  0.22477063  0.69418485    -0.85680
C2280       C  0.52979671  0.31253104  0.69704967     0.96650
C2281       C  0.48049229  0.19515285  0.73896174     0.96450
N2282       N  0.64011972  0.10107261  0.83512500    -0.05840
N2283       N  0.66850469  0.11121426  0.84386898    -0.57960
N2284       N  0.61021576  0.03946893  0.82045589    -0.05520
N2285       N  0.62075257  0.01241481  0.82223866    -0.60090
N2286       N  0.63663366  0.05309398  0.81234277    -0.05120
N2287       N  0.66524951  0.03595328  0.80831629    -0.57930
N2288       N  0.61278219  0.08823290  0.84331682    -0.04790
N2289       N  0.62218235  0.08942304  0.85782044    -0.60440
C2290       C  0.65655892  0.10413487  0.85793076     0.96340
C2291       C  0.65482359  0.01071546  0.81437449     0.96120
N2292       N  0.98906866  0.05677564  0.81194515    -0.06020
N2293       N  0.96168124  0.03904669  0.80679270    -0.58540
N2294       N  0.51767190  0.08774646  0.84438474    -0.04140
N2295       N  0.50807803  0.08567236  0.85885985    -0.59790
N2296       N  0.99029826  0.10184021  0.83685845    -0.06050
N2297       N  0.96189911  0.10977689  0.84608472    -0.58800
N2298       N  0.51611799  0.04242801  0.81964251    -0.03790
N2299       N  0.50775849  0.01484255  0.81972797    -0.59880
Mn2300     Mn  0.56410611  0.06389562  0.83237198     1.18440
C2301       C  0.97409992  0.01308256  0.81160410     0.98420
C2302       C  0.97355333  0.09986733  0.85976328     0.99080
N2303       N  0.62962980  0.09389508  0.78558694    -0.06070
N2304       N  0.63189034  0.06886573  0.77859331    -0.62380
N2305       N  0.61520345  0.16056446  0.80186700    -0.04880
N2306       N  0.62475944  0.18792347  0.80108956    -0.63060
N2307       N  0.64305341  0.14585518  0.80854051    -0.05580
N2308       N  0.67239342  0.16292465  0.81263742    -0.62650
N2309       N  0.60415211  0.11033811  0.77843867    -0.04480
N2310       N  0.58978099  0.09688739  0.76642921    -0.63340
Mn2311     Mn  0.63865721  0.09897582  0.81027234     1.10660
C2312       C  0.60708420  0.07114200  0.76661292     0.99640
C2313       C  0.66029690  0.18904834  0.80796146     0.99720
N2314       N  0.99440688  0.15050983  0.81224244    -0.05590
N2315       N  0.96780871  0.16830878  0.81731946    -0.60960
N2316       N  0.51899208  0.11739678  0.77973771    -0.04910
N2317       N  0.51219744  0.12667448  0.76601221    -0.57690
N2318       N  0.98639156  0.10990732  0.78658262    -0.06220
N2319       N  0.95614263  0.11740386  0.77774386    -0.60530
N2320       N  0.52180183  0.16409405  0.80446314    -0.05200
N2321       N  0.51383006  0.19179039  0.80403878    -0.57710
Mn2322     Mn  0.98894983  0.10438939  0.81185743     1.20190
Mn2323     Mn  0.56576759  0.13887161  0.79125395     1.10090
Cl2324     Cl  0.56407168  0.10165607  0.81183442    -0.85680
C2325       C  0.98046569  0.19388855  0.81234264     0.96650
C2326       C  0.97326321  0.12717453  0.76473666     0.96450
N2327       N  0.60828651  0.47377974  0.66926967    -0.05840
N2328       N  0.57896248  0.48095281  0.66011362    -0.57960
N2329       N  0.63624830  0.41521763  0.68700496    -0.05520
N2330       N  0.62798352  0.38764395  0.68700126    -0.60090
N2331       N  0.60950224  0.42952420  0.69469119    -0.05120
N2332       N  0.58235268  0.41173575  0.69990470    -0.57930
N2333       N  0.63535428  0.45968316  0.66177467    -0.04790
N2334       N  0.62468453  0.45685324  0.64741434    -0.60440
C2335       C  0.58979058  0.47057197  0.64651903     0.96340
C2336       C  0.59472348  0.38580562  0.69516929     0.96120
N2337       N  0.75727662  0.42648689  0.69315551    -0.06020
N2338       N  0.78630768  0.40952682  0.69716442    -0.58540
N2339       N  0.73043458  0.46048328  0.66203492    -0.04140
N2340       N  0.73925884  0.46019974  0.64750680    -0.59790
N2341       N  0.75837448  0.47375937  0.66981010    -0.06050
N2342       N  0.78662081  0.48269608  0.66073791    -0.58800
N2343       N  0.73008997  0.41252929  0.68551844    -0.03790
N2344       N  0.74047497  0.38541944  0.68403365    -0.59880
Mn2345     Mn  0.68285001  0.43649279  0.67372979     1.18440
C2346       C  0.77530738  0.38404994  0.69158752     0.98420
C2347       C  0.77392399  0.47448592  0.64690517     0.99080
N2348       N  0.60806802  0.48364843  0.71955356    -0.06070
N2349       N  0.57879291  0.49245184  0.72838148    -0.62380
N2350       N  0.64172558  0.03698185  0.70087865    -0.04880
N2351       N  0.63365839  0.06465228  0.70114135    -0.63060
N2352       N  0.61389796  0.02322714  0.69333258    -0.05580
N2353       N  0.58681999  0.04088313  0.68828584    -0.62650
N2354       N  0.64141885  0.49067834  0.72613243    -0.04480
N2355       N  0.63595863  0.50072585  0.73973549    -0.63340
Mn2356     Mn  0.60887085  0.47713264  0.69425465     1.10660
C2357       C  0.59719675  0.50239567  0.74115940     0.99640
C2358       C  0.59971512  0.06655885  0.69301101     0.99720
N2359       N  0.76260456  0.01938587  0.69607144    -0.05590
N2360       N  0.79173697  0.03663061  0.69203908    -0.60960
N2361       N  0.72680646  0.48415867  0.72671640    -0.04910
N2362       N  0.71330003  0.47067371  0.73883476    -0.57690
N2363       N  0.75188237  0.46777139  0.71949401    -0.06220
N2364       N  0.75462928  0.44273373  0.72655090    -0.60530
N2365       N  0.73500952  0.03387978  0.70285304    -0.05200
N2366       N  0.74448540  0.06120436  0.70373952    -0.57710
Mn2367     Mn  0.75891192  0.47242150  0.69471266     1.20190
Mn2368     Mn  0.68689209  0.01219526  0.71401790     1.10090
Cl2369     Cl  0.68425545  0.47468717  0.69394282    -0.85680
C2370       C  0.77965796  0.06259662  0.69682290     0.96650
C2371       C  0.73057358  0.44494908  0.73861940     0.96450
N2372       N  0.89003602  0.35101011  0.83512307    -0.05840
N2373       N  0.91817603  0.36132490  0.84392633    -0.57960
N2374       N  0.86072759  0.28954854  0.82008145    -0.05520
N2375       N  0.87147348  0.26249601  0.82166710    -0.60090
N2376       N  0.88702546  0.30347637  0.81205134    -0.05120
N2377       N  0.91576048  0.28655274  0.80789180    -0.57930
N2378       N  0.86282694  0.33787302  0.84324664    -0.04790
N2379       N  0.87208187  0.33902076  0.85776786    -0.60440
C2380       C  0.90623531  0.35401588  0.85795571     0.96340
C2381       C  0.90553773  0.26112332  0.81377523     0.96120
N2382       N  0.73939898  0.30637698  0.81165712    -0.06020
N2383       N  0.71215335  0.28860681  0.80643048    -0.58540
N2384       N  0.76770888  0.33695161  0.84429510    -0.04140
N2385       N  0.75845457  0.33495854  0.85881021    -0.59790
N2386       N  0.74017068  0.35101366  0.83683914    -0.06050
N2387       N  0.71199334  0.35901190  0.84615704    -0.58800
N2388       N  0.76656648  0.29202893  0.81929441    -0.03790
N2389       N  0.75842443  0.26440632  0.81925836    -0.59880
Mn2390     Mn  0.81436733  0.31350174  0.83215322     1.18440
C2391       C  0.72478012  0.26261909  0.81112435     0.98420
C2392       C  0.72394298  0.34915637  0.85981581     0.99080
N2393       N  0.87973065  0.34483564  0.78554497    -0.06070
N2394       N  0.88217462  0.31996645  0.77840408    -0.62380
N2395       N  0.86459166  0.41105359  0.80225750    -0.04880
N2396       N  0.87392447  0.43846209  0.80162009    -0.63060
N2397       N  0.89259090  0.39633248  0.80882623    -0.05580
N2398       N  0.92181515  0.41344098  0.81299421    -0.62650
N2399       N  0.85414695  0.36133088  0.77849023    -0.04480
N2400       N  0.83990431  0.34807923  0.76639530    -0.63340
Mn2401     Mn  0.88863070  0.34940841  0.81026314     1.10660
C2402       C  0.85738219  0.32239574  0.76642789     0.99640
C2403       C  0.90947634  0.43960006  0.80847699     0.99720
N2404       N  0.74380543  0.40012106  0.81247912    -0.05590
N2405       N  0.71705818  0.41767472  0.81767782    -0.60960
N2406       N  0.76899591  0.36789738  0.77981570    -0.04910
N2407       N  0.76239779  0.37723524  0.76609146    -0.57690
N2408       N  0.73637809  0.36002743  0.78652949    -0.06220
N2409       N  0.70620488  0.36729001  0.77758484    -0.60530
N2410       N  0.77115827  0.41402050  0.80483370    -0.05200
N2411       N  0.76300315  0.44169215  0.80462365    -0.57710
Mn2412     Mn  0.73880070  0.35399709  0.81181711     1.20190
Mn2413     Mn  0.81543687  0.38935273  0.79149035     1.10090
Cl2414     Cl  0.81399217  0.35166035  0.81182318    -0.85680
C2415       C  0.72957852  0.44343471  0.81291629     0.96650
C2416       C  0.72350729  0.37731984  0.76465569     0.96450
C2417       C  0.71563987  0.42058960  0.74715463    -0.12990
C2418       C  0.70891880  0.39947632  0.75480708    -0.14550
C2419       C  0.58438058  0.02558733  0.75065278    -0.12990
C2420       C  0.59180296  0.04681074  0.75811078    -0.14550
C2421       C  0.95153543  0.48718040  0.81012823    -0.12990
C2422       C  0.93270805  0.46527431  0.80950812    -0.14550
C2423       C  0.70246319  0.23660664  0.80958334    -0.12990
C2424       C  0.68363841  0.21469162  0.80895093    -0.14550
C2425       C  0.68082421  0.48677940  0.81438333    -0.12990
C2426       C  0.70486875  0.46802246  0.81381669    -0.14550
C2427       C  0.95591769  0.21858893  0.81308886    -0.12990
C2428       C  0.93185026  0.23733606  0.81365493    -0.14550
C2429       C  0.83453638  0.27685375  0.75046653    -0.12990
C2430       C  0.84208996  0.29813860  0.75786199    -0.14550
C2431       C  0.55328219  0.33805825  0.69649081    -0.12990
C2432       C  0.57211097  0.35995123  0.69634921    -0.14550
C2433       C  0.82186280  0.11009384  0.69629751    -0.12990
C2434       C  0.80310876  0.08815840  0.69634606    -0.14550
C2435       C  0.82534963  0.34133242  0.69220799    -0.12990
C2436       C  0.80137419  0.36014563  0.69166962    -0.14550
C2437       C  0.57505698  0.09120525  0.69227276    -0.12990
C2438       C  0.55114948  0.11007429  0.69183112    -0.14550
C2439       C  0.95882866  0.14959797  0.75504066    -0.12990
C2440       C  0.46554512  0.17080887  0.74747853    -0.14550
C2441       C  0.56868475  0.22445910  0.62317323    -0.12990
C2442       C  0.54826710  0.22632598  0.63417579    -0.14550
C2443       C  0.79269844  0.21806741  0.62265955    -0.12990
C2444       C  0.81451394  0.22007833  0.63352371    -0.14550
C2445       C  0.81839025  0.47305805  0.62267814    -0.12990
C2446       C  0.79819797  0.47524069  0.63373944    -0.14550
C2447       C  0.54230952  0.46769892  0.62251846    -0.12990
C2448       C  0.56405405  0.46971412  0.63340749    -0.14550
C2449       C  0.55930418  0.32884825  0.55932637    -0.12990
C2450       C  0.54012356  0.35055124  0.55973151    -0.14550
C2451       C  0.78796964  0.09926341  0.56048078    -0.12990
C2452       C  0.80727698  0.07763527  0.55986500    -0.14550
C2453       C  0.53337520  0.08041288  0.56224921    -0.12990
C2454       C  0.55751699  0.09920812  0.56339808    -0.14550
C2455       C  0.80980483  0.34802586  0.56244184    -0.12990
C2456       C  0.78569839  0.32919029  0.56145840    -0.14550
C2457       C  0.74708117  0.30154297  0.50533978    -0.12990
C2458       C  0.75220634  0.27839409  0.51119948    -0.14550
C2459       C  0.88615637  0.39387890  0.49723669    -0.12990
C2460       C  0.87520394  0.41313125  0.50540105    -0.14550
C2461       C  0.49752531  0.03087110  0.51089773    -0.12990
C2462       C  0.99140950  0.05349576  0.50457912    -0.14550
C2463       C  0.96500530  0.20809482  0.44393059    -0.12990
C2464       C  0.94498938  0.22925654  0.44375462    -0.14550
C2465       C  0.71417279  0.45775673  0.44563193    -0.12990
C2466       C  0.69413251  0.47887493  0.44537586    -0.14550
C2467       C  0.94200500  0.45853376  0.44084145    -0.12990
C2468       C  0.96520867  0.47782895  0.44287407    -0.14550
C2469       C  0.69354456  0.20810516  0.44245664    -0.12990
C2470       C  0.71671630  0.22744626  0.44440693    -0.14550
C2471       C  0.63289257  0.14233996  0.49879454    -0.12990
C2472       C  0.62244828  0.16207227  0.50668421    -0.14550
C2473       C  0.92691968  0.09876964  0.88383291    -0.12990
C2474       C  0.94866501  0.09992371  0.87300691    -0.14550
C2475       C  0.68115268  0.10673178  0.87103089    -0.12990
C2476       C  0.70171246  0.10579848  0.88213216    -0.14550
C2477       C  0.67801347  0.34871314  0.88412575    -0.12990
C2478       C  0.69951719  0.34955750  0.87320738    -0.14550
C2479       C  0.95120990  0.35636372  0.88220835    -0.12990
C2480       C  0.93059419  0.35692049  0.87111034    -0.14550
C2481       C  0.92276344  0.48286274  0.94605537    -0.12990
C2482       C  0.94223146  0.46130010  0.94641850    -0.14550
C2483       C  0.67124447  0.23202801  0.94553210    -0.12990
C2484       C  0.69073362  0.21050105  0.94581587    -0.14550
C2485       C  0.91687382  0.21278545  0.94346513    -0.12990
C2486       C  0.94074072  0.23175081  0.94219973    -0.14550
C2487       C  0.66816563  0.46205371  0.94453167    -0.12990
C2488       C  0.69199266  0.48103061  0.94315418    -0.14550
C2489       C  0.75608395  0.04493754  0.99945810    -0.12990
C2490       C  0.76654657  0.02528206  0.00755208    -0.14550
C2491       C  0.62613124  0.43033865  0.00285715    -0.12990
C2492       C  0.63250731  0.40757272  0.99685857    -0.14550
C2493       C  0.88159120  0.16197948  0.99496577    -0.12990
C2494       C  0.87579923  0.18467171  0.00111781    -0.14550
C2495       C  0.57987204  0.11018429  0.06208405    -0.12990
C2496       C  0.59977812  0.08892128  0.06212404    -0.14550
C2497       C  0.84762526  0.33809537  0.06079237    -0.12990
C2498       C  0.82765066  0.35926978  0.06068691    -0.14550
C2499       C  0.85126475  0.10783508  0.06286967    -0.12990
C2500       C  0.82813056  0.08849405  0.06472302    -0.14550
C2501       C  0.59929884  0.35859392  0.06210299    -0.12990
C2502       C  0.57585024  0.33944037  0.06411592    -0.14550
C2503       C  0.51558621  0.27432015  0.00757303    -0.12990
C2504       C  0.50509460  0.29384380  0.99936259    -0.14550
C2505       C  0.56504756  0.21182366  0.12479957    -0.12990
C2506       C  0.58651377  0.20670929  0.13530476    -0.14550
C2507       C  0.83707189  0.21299569  0.12033699    -0.12990
C2508       C  0.81578414  0.20765744  0.13102769    -0.14550
C2509       C  0.83729420  0.45444657  0.13494625    -0.12990
C2510       C  0.81566836  0.45819298  0.12431842    -0.14550
C2511       C  0.57315785  0.45621741  0.13191443    -0.12990
C2512       C  0.59409509  0.46063040  0.12110004    -0.14550
C2513       C  0.59600680  0.08100571  0.19724178    -0.12990
C2514       C  0.57728998  0.05873911  0.19738871    -0.14550
C2515       C  0.83953642  0.33422744  0.19274000    -0.12990
C2516       C  0.82101605  0.31208624  0.19266502    -0.14550
C2517       C  0.84364683  0.06239461  0.19078268    -0.12990
C2518       C  0.82007675  0.08137264  0.18991265    -0.14550
C2519       C  0.57043040  0.33013577  0.19542905    -0.12990
C2520       C  0.59563071  0.31223503  0.19632721    -0.14550
C2521       C  0.91449586  0.32604374  0.37956609    -0.12990
C2522       C  0.93578743  0.32221032  0.36900262    -0.14550
C2523       C  0.68097519  0.32429672  0.37650474    -0.12990
C2524       C  0.70371402  0.32881435  0.38684041    -0.14550
C2525       C  0.61912932  0.28774359  0.25000464    -0.12990
C2526       C  0.61376157  0.26522618  0.24334564    -0.14550
C2527       C  0.54163786  0.34767850  0.24648361    -0.12990
C2528       C  0.55171870  0.36939648  0.23977982    -0.14550
C2529       C  0.96024334  0.07988172  0.38430880    -0.12990
C2530       C  0.93940140  0.07503993  0.37337766    -0.14550
C2531       C  0.70120439  0.07450229  0.37200173    -0.12990
C2532       C  0.67943106  0.07841675  0.38238075    -0.14550
C2533       C  0.76240985  0.12199470  0.25603071    -0.12990
C2534       C  0.76768660  0.14275125  0.24796076    -0.14550
C2535       C  0.93682826  0.18149247  0.31102419    -0.12990
C2536       C  0.95647204  0.20312510  0.31138200    -0.14550
C2537       C  0.67871492  0.43679466  0.31560823    -0.12990
C2538       C  0.69807328  0.45846985  0.31463028    -0.14550
C2539       C  0.71040166  0.18993428  0.31801689    -0.12990
C2540       C  0.68731115  0.20942327  0.31885235    -0.14550
C2541       C  0.94331345  0.42858192  0.31272435    -0.12990
C2542       C  0.91961519  0.44788557  0.31225407    -0.14550
C2543       C  0.92290860  0.02021869  0.25642514    -0.12990
C2544       C  0.92090776  0.99884018  0.24872384    -0.14550
N2545       N  0.74683711  0.57802295  0.28752058    -0.05840
N2546       N  0.73648372  0.60072894  0.27947771    -0.57960
N2547       N  0.76357151  0.51242963  0.30385496    -0.05520
N2548       N  0.75437573  0.98496129  0.30421223    -0.60090
N2549       N  0.73723557  0.52756134  0.31101304    -0.05120
N2550       N  0.70936641  0.51066090  0.31651894    -0.57930
N2551       N  0.77271269  0.56273917  0.28008605    -0.04790
N2552       N  0.78028236  0.57498131  0.26685611    -0.60440
C2553       C  0.75700567  0.59834864  0.26651485     0.96340
C2554       C  0.72071670  0.98419464  0.31222859     0.96120
N2555       N  0.88547133  0.51810943  0.31268140    -0.06020
N2556       N  0.91150389  0.99898617  0.31716714    -0.58540
N2557       N  0.86049838  0.55265305  0.28035337    -0.04140
N2558       N  0.86760529  0.54251525  0.26684724    -0.59790
N2559       N  0.89329690  0.56006950  0.28734051    -0.06050
N2560       N  0.92358455  0.55254696  0.27876022    -0.58800
N2561       N  0.85671637  0.00584530  0.30488376    -0.03790
N2562       N  0.86301399  0.97792184  0.30396465    -0.59880
Mn2563     Mn  0.81268599  0.53293146  0.29225570     1.18440
C2564       C  0.89696502  0.97401597  0.31189035     0.98420
C2565       C  0.90672670  0.54219913  0.26584847     0.99080
N2566       N  0.74403490  0.57284931  0.33682352    -0.06070
N2567       N  0.71466277  0.56519344  0.34561478    -0.62380
N2568       N  0.77670105  0.63338840  0.32164911    -0.04880
N2569       N  0.76903341  0.66078838  0.32381160    -0.63060
N2570       N  0.74787428  0.62118075  0.31400692    -0.05580
N2571       N  0.72017839  0.63996741  0.31075767    -0.62650
N2572       N  0.77255034  0.58502074  0.34475220    -0.04480
N2573       N  0.76284540  0.58594112  0.35918370    -0.63340
Mn2574     Mn  0.74288611  0.57454953  0.31222379     1.10660
C2575       C  0.72711654  0.57304079  0.35947442     0.99640
C2576       C  0.73402473  0.66458907  0.31673744     0.99720
N2577       N  0.89593882  0.61258325  0.31263888    -0.05590
N2578       N  0.92401294  0.62970658  0.30746047    -0.60960
N2579       N  0.86729356  0.58241485  0.34517289    -0.04910
N2580       N  0.87842583  0.58608303  0.35941065    -0.57690
N2581       N  0.89383961  0.56755684  0.33779201    -0.06220
N2582       N  0.92343715  0.56089942  0.34698109    -0.60530
N2583       N  0.86992608  0.62757790  0.32030940    -0.05200
N2584       N  0.87961561  0.65493707  0.32035932    -0.57710
Mn2585     Mn  0.89308616  0.56479141  0.31261772     1.20190
Mn2586     Mn  0.82174873  0.60739678  0.33325128     1.10090
Cl2587     Cl  0.81796960  0.56981812  0.31281745    -0.85680
C2588       C  0.91300754  0.65600376  0.31221469     0.96650
C2589       C  0.91309140  0.57221815  0.36046512     0.96290
N2590       N  0.52227385  0.88173817  0.30710553    -0.05840
N2591       N  0.99394145  0.89771176  0.30122427    -0.57960
N2592       N  0.61129051  0.88206958  0.32315222    -0.05520
N2593       N  0.63617093  0.90154254  0.32839764    -0.60090
N2594       N  0.61310796  0.88079698  0.30825505    -0.05120
N2595       N  0.63910453  0.89950433  0.30310876    -0.57930
N2596       N  0.52078411  0.88226922  0.32195776    -0.04790
N2597       N  0.99155160  0.89864144  0.32652736    -0.60440
C2598       C  0.97489821  0.90792610  0.31346759     0.96340
C2599       C  0.65360106  0.91189749  0.31578998     0.96120
N2600       N  0.60760540  0.80693692  0.34985205    -0.06020
N2601       N  0.63476006  0.79795290  0.35957487    -0.58540
N2602       N  0.51754660  0.83472962  0.34675403    -0.04140
N2603       N  0.98699574  0.84497684  0.35401847    -0.59790
N2604       N  0.51692352  0.80656742  0.34694634    -0.06050
N2605       N  0.98599303  0.79704697  0.35445149    -0.58800
N2606       N  0.60780484  0.83511009  0.34918391    -0.03790
N2607       N  0.63480186  0.84580824  0.35839307    -0.59880
Mn2608     Mn  0.56454238  0.85916617  0.33566803     1.18440
C2609       C  0.65153842  0.82249973  0.36468717     0.98420
C2610       C  0.96750816  0.82128544  0.35854867     0.99080
N2611       N  0.61220664  0.83093092  0.28164405    -0.06070
N2612       N  0.61502913  0.83080526  0.26659219    -0.62380
N2613       N  0.53350386  0.80794496  0.27951503    -0.04880
N2614       N  0.03674253  0.80655524  0.26449636    -0.63060
N2615       N  0.52287970  0.83416098  0.28302923    -0.05580
N2616       N  0.01349740  0.84876928  0.27081679    -0.62650
N2617       N  0.62160621  0.80524933  0.28661112    -0.04480
N2618       N  0.63639930  0.78969519  0.27574252    -0.63340
Mn2619     Mn  0.56802224  0.85710538  0.29509685     1.10660
C2620       C  0.63014676  0.80470847  0.26312391     0.99640
C2621       C  0.02429970  0.83240203  0.25923526     0.99720
N2622       N  0.52102396  0.75824854  0.32177216    -0.05590
N2623       N  0.99495522  0.73863853  0.32587757    -0.60960
N2624       N  0.61312755  0.75826984  0.31031132    -0.04910
N2625       N  0.64170432  0.74151651  0.30565224    -0.57690
N2626       N  0.61101274  0.75792467  0.32515092    -0.06220
N2627       N  0.63802823  0.74068581  0.33094563    -0.60530
N2628       N  0.52338162  0.75942392  0.30686300    -0.05200
N2629       N  0.99928443  0.74051238  0.30061031    -0.57710
Mn2630     Mn  0.56398025  0.78166551  0.33642933     1.20190
Mn2631     Mn  0.57223926  0.78266042  0.29590785     1.10090
Cl2632     Cl  0.56706045  0.82011483  0.31600079    -0.85680
C2633       C  0.98137650  0.72808584  0.31257401     0.96650
C2634       C  0.65710387  0.73090972  0.31859428     0.96450
N2635       N  0.53830002  0.93030292  0.21735638    -0.05840
N2636       N  0.56404345  0.91091996  0.22237314    -0.57960
N2637       N  0.99930798  0.88266504  0.19968199    -0.05520
N2638       N  0.00952597  0.85566921  0.20183944    -0.60090
N2639       N  0.52564395  0.89558442  0.19105307    -0.05120
N2640       N  0.55377356  0.87786728  0.18722860    -0.57930
N2641       N  0.00599983  0.92746390  0.22539189    -0.04790
N2642       N  0.51205732  0.91071123  0.23714327    -0.60440
C2643       C  0.54713456  0.89896967  0.23481272     0.96340
C2644       C  0.54308703  0.85307408  0.19375878     0.96120
N2645       N  0.87934093  0.90323207  0.19552612    -0.06020
N2646       N  0.85063898  0.88642871  0.19051124    -0.58540
N2647       N  0.91912637  0.93717974  0.22641379    -0.04140
N2648       N  0.93175808  0.95029831  0.23881081    -0.59790
N2649       N  0.89200195  0.95268431  0.21959268    -0.06050
N2650       N  0.88604603  0.97648700  0.22729975    -0.58800
N2651       N  0.90672790  0.88806518  0.20221332    -0.03790
N2652       N  0.89750171  0.86059821  0.20198351    -0.59880
Mn2653     Mn  0.95699574  0.90849908  0.21337588     1.18440
C2654       C  0.86268800  0.85990728  0.19454028     0.98420
C2655       C  0.91071002  0.97459452  0.23928950     0.99080
N2656       N  0.53155919  0.94748646  0.16776162    -0.06070
N2657       N  0.55978182  0.94095202  0.15813915    -0.62380
N2658       N  0.50938832  0.50531046  0.18721125    -0.04880
N2659       N  0.51912881  0.53268746  0.18781973    -0.63060
N2660       N  0.53620361  0.98951667  0.19423732    -0.05580
N2661       N  0.56479441  0.50619946  0.19957348    -0.62650
N2662       N  0.50455415  0.96312344  0.16098195    -0.04480
N2663       N  0.51406519  0.96763357  0.14667075    -0.63340
Mn2664     Mn  0.53349798  0.94140031  0.19258998     1.10660
C2665       C  0.54819802  0.95332032  0.14501395     0.99640
C2666       C  0.55338460  0.53304971  0.19565729     0.99720
N2667       N  0.88749718  0.49624535  0.19402589    -0.05590
N2668       N  0.85852303  0.51344322  0.19762812    -0.60960
N2669       N  0.90996539  0.96420481  0.16230243    -0.04910
N2670       N  0.89907533  0.96635716  0.14796935    -0.57690
N2671       N  0.88254323  0.95064212  0.17012230    -0.06220
N2672       N  0.85266324  0.94340610  0.16131671    -0.60530
N2673       N  0.91494512  0.51002782  0.18649663    -0.05200
N2674       N  0.90477628  0.53708943  0.18465892    -0.57710
Mn2675     Mn  0.88413307  0.95009554  0.19490505     1.20190
Mn2676     Mn  0.95988168  0.98620196  0.17395459     1.10090
Cl2677     Cl  0.95886841  0.94652643  0.19337627    -0.85680
C2678       C  0.86993595  0.53879126  0.19192847     0.96650
C2679       C  0.86372148  0.95291305  0.14756159     0.96450
N2680       N  0.63257701  0.70686711  0.22012225    -0.05840
N2681       N  0.60494884  0.72344335  0.22611559    -0.57960
N2682       N  0.66533398  0.75877558  0.20258379    -0.05520
N2683       N  0.65597083  0.78611011  0.20400908    -0.60090
N2684       N  0.63767733  0.74541246  0.19477143    -0.05120
N2685       N  0.60939724  0.76291950  0.19071576    -0.57930
N2686       N  0.66594775  0.71203180  0.22734656    -0.04790
N2687       N  0.65984787  0.72806319  0.23929310    -0.60440
C2688       C  0.62254118  0.73650263  0.23809521     0.96340
C2689       C  0.62134469  0.78816060  0.19630730     0.96120
N2690       N  0.78497614  0.74194412  0.19455782    -0.06020
N2691       N  0.81157565  0.76005185  0.18920677    -0.58540
N2692       N  0.75441276  0.70386204  0.22553218    -0.04140
N2693       N  0.74791115  0.69022681  0.23845751    -0.59790
N2694       N  0.78048298  0.68988630  0.21747978    -0.06050
N2695       N  0.79193351  0.66662014  0.22485402    -0.58800
N2696       N  0.75851790  0.75560231  0.20243213    -0.03790
N2697       N  0.76637199  0.78328881  0.20269686    -0.59880
Mn2698     Mn  0.71182073  0.73287978  0.21446895     1.18440
C2699       C  0.79926455  0.78574065  0.19429347     0.98420
C2700       C  0.77194345  0.66733546  0.23801185     0.99080
N2701       N  0.63045357  0.69795857  0.17050375    -0.06070
N2702       N  0.60185146  0.70877151  0.16218467    -0.62380
N2703       N  0.65828500  0.63754570  0.18627751    -0.04880
N2704       N  0.64989342  0.60987786  0.18624922    -0.63060
N2705       N  0.63301368  0.65148490  0.19488271    -0.05580
N2706       N  0.60686495  0.63335967  0.20063700    -0.62650
N2707       N  0.65604668  0.68456041  0.16200206    -0.04480
N2708       N  0.64497933  0.68571407  0.14763094    -0.63340
Mn2709     Mn  0.63304512  0.69949296  0.19513590     1.10660
C2710       C  0.61137881  0.70109495  0.14804439     0.99640
C2711       C  0.61813212  0.60748496  0.19532311     0.99720
N2712       N  0.78024828  0.64911885  0.19057580    -0.05590
N2713       N  0.80842628  0.63149236  0.19465425    -0.60960
N2714       N  0.75138506  0.68481757  0.15998331    -0.04910
N2715       N  0.75898891  0.68662374  0.14527611    -0.57690
N2716       N  0.77953095  0.69785449  0.16775747    -0.06220
N2717       N  0.80642818  0.70867150  0.15861580    -0.60530
N2718       N  0.75210618  0.63556610  0.18323066    -0.05200
N2719       N  0.76080643  0.60811448  0.18204405    -0.57710
Mn2720     Mn  0.78247958  0.69516151  0.19264464     1.20190
Mn2721     Mn  0.70421056  0.65996689  0.17238858     1.10090
Cl2722     Cl  0.70762019  0.69676117  0.19345309    -0.85680
C2723       C  0.79577846  0.60612340  0.18942027     0.96650
C2724       C  0.79324405  0.70179699  0.14465003     0.96450
N2725       N  0.88186552  0.72281246  0.08492504    -0.05840
N2726       N  0.85283067  0.71195379  0.09307740    -0.57960
N2727       N  0.91276016  0.78340321  0.06971194    -0.05520
N2728       N  0.90350827  0.81071937  0.07054035    -0.60090
N2729       N  0.88748044  0.76965263  0.06087141    -0.05120
N2730       N  0.86043878  0.78741633  0.05567617    -0.57930
N2731       N  0.90771157  0.73602471  0.09369609    -0.04790
N2732       N  0.89627119  0.73453824  0.10802116    -0.60440
C2733       C  0.86216007  0.71927177  0.10743447     0.96340
C2734       C  0.87125250  0.81287097  0.06163385     0.96120
N2735       N  0.53457341  0.77147985  0.06547052    -0.06020
N2736       N  0.56285548  0.78879579  0.06098958    -0.58540
N2737       N  0.00347964  0.73586514  0.09578334    -0.04140
N2738       N  0.00988236  0.73328555  0.11051096    -0.59790
N2739       N  0.53171901  0.72305246  0.08822007    -0.06050
N2740       N  0.55754919  0.71147986  0.09750860    -0.58800
N2741       N  0.00698182  0.78541273  0.07270365    -0.03790
N2742       N  0.01639355  0.81299937  0.07331068    -0.59880
Mn2743     Mn  0.95762923  0.76090572  0.08351989     1.18440
C2744       C  0.55120458  0.81452173  0.06580209     0.98420
C2745       C  0.54342957  0.71779304  0.11126734     0.99080
N2746       N  0.89198512  0.71923206  0.03466500    -0.06070
N2747       N  0.86516103  0.71467686  0.02385682    -0.62380
N2748       N  0.91817099  0.66242981  0.05343583    -0.04880
N2749       N  0.91015218  0.63461854  0.05365660    -0.63060
N2750       N  0.88928313  0.67642500  0.05990523    -0.05580
N2751       N  0.86156035  0.65896204  0.06470302    -0.62650
N2752       N  0.92629956  0.71162462  0.02941501    -0.04480
N2753       N  0.92459567  0.70553527  0.01504419    -0.63340
Mn2754     Mn  0.88646022  0.72240086  0.05992918     1.10660
C2755       C  0.88669172  0.70663788  0.01154614     0.99640
C2756       C  0.87494087  0.63306539  0.06088065     0.99720
N2757       N  0.53917625  0.67850611  0.06216318    -0.05590
N2758       N  0.56758129  0.66125307  0.06674451    -0.60960
N2759       N  0.01145474  0.71402406  0.03081407    -0.04910
N2760       N  0.00427581  0.72611860  0.01752694    -0.57690
N2761       N  0.53552693  0.73017851  0.03879132    -0.06220
N2762       N  0.54422774  0.75379654  0.03108646    -0.60530
N2763       N  0.01231867  0.66414179  0.05462067    -0.05200
N2764       N  0.02176286  0.63687169  0.05368460    -0.57710
Mn2765     Mn  0.53628166  0.72552800  0.06364695     1.20190
Mn2766     Mn  0.96728350  0.68715425  0.04222943     1.10090
Cl2767     Cl  0.96151193  0.72394274  0.06273232    -0.85680
C2768       C  0.55598870  0.63539136  0.06147745     0.96650
C2769       C  0.52499392  0.75071555  0.01770859     0.96450
N2770       N  0.63434170  0.97244556  0.08522959    -0.05840
N2771       N  0.60652941  0.96076420  0.09366871    -0.57960
N2772       N  0.66467218  0.53345657  0.07022456    -0.05520
N2773       N  0.65577612  0.56081596  0.07132105    -0.60090
N2774       N  0.63875952  0.52006696  0.06149021    -0.05120
N2775       N  0.61166721  0.53815195  0.05663901    -0.57930
N2776       N  0.66087516  0.98536052  0.09379786    -0.04790
N2777       N  0.65130994  0.98287050  0.10825642    -0.60440
C2778       C  0.61758404  0.96728089  0.10795644     0.96340
C2779       C  0.62306585  0.56341505  0.06269249     0.96120
N2780       N  0.78631904  0.52075589  0.06541152    -0.06020
N2781       N  0.81477511  0.53803951  0.06106260    -0.58540
N2782       N  0.75541249  0.98446372  0.09548614    -0.04140
N2783       N  0.76138507  0.98089092  0.11017586    -0.59790
N2784       N  0.78321162  0.97149849  0.08777996    -0.06050
N2785       N  0.80841385  0.95885771  0.09695060    -0.58800
N2786       N  0.75898108  0.53464768  0.07279650    -0.03790
N2787       N  0.76868736  0.56212035  0.07367843    -0.59880
Mn2788     Mn  0.70989412  0.51027310  0.08358117     1.18440
C2789       C  0.80341490  0.56365570  0.06615408     0.98420
C2790       C  0.79421862  0.96462044  0.11078728     0.99080
N2791       N  0.64104950  0.96968953  0.03492497    -0.06070
N2792       N  0.61385328  0.96197181  0.02478153    -0.62380
N2793       N  0.66713225  0.91294889  0.05281747    -0.04880
N2794       N  0.65838923  0.88522004  0.05266835    -0.63060
N2795       N  0.63904416  0.92686410  0.05981041    -0.05580
N2796       N  0.61113707  0.90950141  0.06455833    -0.62650
N2797       N  0.67563471  0.96392499  0.02926718    -0.04480
N2798       N  0.67313063  0.95679558  0.01503152    -0.63340
Mn2799     Mn  0.63712100  0.97271489  0.06023988     1.10660
C2800       C  0.63491239  0.95439451  0.01228518     0.99640
C2801       C  0.62354414  0.88366520  0.06018773     0.99720
N2802       N  0.78862469  0.92792113  0.06123433    -0.05590
N2803       N  0.81662241  0.91022310  0.06565680    -0.60960
N2804       N  0.76094050  0.96465841  0.03037815    -0.04910
N2805       N  0.75390849  0.97714799  0.01719285    -0.57690
N2806       N  0.78570901  0.98019503  0.03838786    -0.06220
N2807       N  0.79507230  0.00381377  0.03080995    -0.60530
N2808       N  0.76131589  0.91409515  0.05363507    -0.05200
N2809       N  0.77007175  0.88673388  0.05250185    -0.57710
Mn2810     Mn  0.78709262  0.97481560  0.06318460     1.20190
Mn2811     Mn  0.71639776  0.93799591  0.04164061     1.10090
Cl2812     Cl  0.71229885  0.97391460  0.06252666    -0.85680
C2813       C  0.80433604  0.88467639  0.06023112     0.96650
C2814       C  0.77548126  0.00134077  0.01747489     0.96450
N2815       N  0.48490702  0.83926223  0.96860769    -0.05840
N2816       N  0.97572000  0.81563324  0.97623414    -0.57960
N2817       N  0.50793132  0.90556816  0.95342117    -0.05520
N2818       N  0.49940832  0.93298865  0.95466586    -0.60090
N2819       N  0.48048561  0.89197994  0.94576595    -0.05120
N2820       N  0.95253330  0.90991599  0.94149178    -0.57930
N2821       N  0.51043491  0.85447655  0.97642872    -0.04790
N2822       N  0.51821372  0.84182552  0.98951110    -0.60440
C2823       C  0.49623944  0.81781989  0.98939578     0.96340
C2824       C  0.96500388  0.93539409  0.94702763     0.96120
N2825       N  0.62821622  0.89404764  0.94486668    -0.06020
N2826       N  0.65551070  0.91191258  0.94015459    -0.58540
N2827       N  0.59612207  0.85471336  0.97668819    -0.04140
N2828       N  0.59824268  0.86627970  0.99014228    -0.59790
N2829       N  0.63065115  0.85447930  0.97016048    -0.06050
N2830       N  0.65394225  0.87234222  0.97782868    -0.58800
N2831       N  0.60128891  0.90708641  0.95293368    -0.03790
N2832       N  0.60999193  0.93473005  0.95375231    -0.59880
Mn2833     Mn  0.55394612  0.88125780  0.96481360     1.18440
C2834       C  0.64360443  0.93716100  0.94555301     0.98420
C2835       C  0.63291107  0.87941261  0.99033723     0.99080
N2836       N  0.48555528  0.84749147  0.91893032    -0.06070
N2837       N  0.95967769  0.85903804  0.90959524    -0.62380
N2838       N  0.51073823  0.78492085  0.93445571    -0.04880
N2839       N  0.50081131  0.75750481  0.93361990    -0.63060
N2840       N  0.48339937  0.79900837  0.94173044    -0.05580
N2841       N  0.95482951  0.78188847  0.94611744    -0.62650
N2842       N  0.51318938  0.83404559  0.91132273    -0.04480
N2843       N  0.50653658  0.83630749  0.89662464    -0.63340
Mn2844     Mn  0.48232539  0.84487561  0.94372289     1.10660
C2845       C  0.97347768  0.85222532  0.89580269     0.99640
C2846       C  0.46610255  0.75619523  0.94114035     0.99720
N2847       N  0.63171588  0.80091776  0.94481950    -0.05590
N2848       N  0.65929052  0.78336696  0.94985772    -0.60960
N2849       N  0.60778490  0.83256117  0.91196493    -0.04910
N2850       N  0.61841775  0.83169000  0.89757021    -0.57690
N2851       N  0.63440734  0.84649379  0.92000366    -0.06220
N2852       N  0.66340332  0.85551185  0.91123422    -0.60530
N2853       N  0.60544129  0.78665704  0.93663463    -0.05200
N2854       N  0.61458938  0.75927078  0.93609946    -0.57710
Mn2855     Mn  0.63217673  0.84852268  0.94499769     1.20190
Mn2856     Mn  0.55927520  0.80875064  0.92315553     1.10090
Cl2857     Cl  0.55706034  0.84601977  0.94367801    -0.85680
C2858       C  0.64783924  0.75752716  0.94449494     0.96650
C2859       C  0.65289005  0.84637947  0.89727974     0.96450
N2860       N  0.73520399  0.58967039  0.96860114    -0.05840
N2861       N  0.72619496  0.56623046  0.97639807    -0.57960
N2862       N  0.75732356  0.65548298  0.95291355    -0.05520
N2863       N  0.74843018  0.68285016  0.95401443    -0.60090
N2864       N  0.72994717  0.64151992  0.94540654    -0.05120
N2865       N  0.70165837  0.65914513  0.94110295    -0.57930
N2866       N  0.76081932  0.60512394  0.97626677    -0.04790
N2867       N  0.76889301  0.59276692  0.98939883    -0.60440
C2868       C  0.74694079  0.56874678  0.98947843     0.96340
C2869       C  0.71388065  0.68482048  0.94645322     0.96120
N2870       N  0.87735600  0.64468976  0.94408031    -0.06020
N2871       N  0.90439737  0.66259893  0.93920182    -0.58540
N2872       N  0.84680316  0.60627217  0.97644480    -0.04140
N2873       N  0.84891542  0.61913368  0.98956909    -0.59790
N2874       N  0.88108300  0.60627429  0.96970161    -0.06050
N2875       N  0.90367687  0.62553728  0.97669226    -0.58800
N2876       N  0.85049670  0.65776202  0.95216643    -0.03790
N2877       N  0.85897530  0.68544941  0.95282853    -0.59880
Mn2878     Mn  0.80386077  0.63197895  0.96442553     1.18440
C2879       C  0.89236403  0.68789197  0.94450561     0.98420
C2880       C  0.88280024  0.63330024  0.98910251     0.99080
N2881       N  0.73527618  0.59648354  0.91892173    -0.06070
N2882       N  0.70952935  0.60807746  0.90955526    -0.62380
N2883       N  0.76130959  0.53441704  0.93486667    -0.04880
N2884       N  0.75171743  0.50690954  0.93427484    -0.63060
N2885       N  0.73387117  0.54852289  0.94207129    -0.05580
N2886       N  0.70557583  0.53134752  0.94665322    -0.62650
N2887       N  0.76300459  0.58306629  0.91136516    -0.04480
N2888       N  0.75656292  0.58537789  0.89665441    -0.63340
Mn2889     Mn  0.73226513  0.59440963  0.94369364     1.10660
C2890       C  0.72349826  0.60128973  0.89578916     0.99640
C2891       C  0.71711242  0.50558365  0.94187470     0.99720
N2892       N  0.88228855  0.55153302  0.94489391    -0.05590
N2893       N  0.91019858  0.53430986  0.94999362    -0.60960
N2894       N  0.85740141  0.58217503  0.91183820    -0.04910
N2895       N  0.86781679  0.58119891  0.89741946    -0.57690
N2896       N  0.88386940  0.59648937  0.91974036    -0.06220
N2897       N  0.91252608  0.60570498  0.91087985    -0.60530
N2898       N  0.85608939  0.53686817  0.93687488    -0.05200
N2899       N  0.86561625  0.50953371  0.93652273    -0.57710
Mn2900     Mn  0.88200357  0.59917515  0.94463940     1.20190
Mn2901     Mn  0.80943346  0.55835191  0.92332549     1.10090
Cl2902     Cl  0.80689585  0.59610583  0.94376553    -0.85680
C2903       C  0.89903324  0.50823525  0.94485037     0.96650
C2904       C  0.90199026  0.59626037  0.89700032     0.96450
N2905       N  0.64816660  0.59185925  0.41866847    -0.05840
N2906       N  0.67294089  0.57908791  0.40958969    -0.57960
N2907       N  0.62423115  0.65444804  0.43386737    -0.05520
N2908       N  0.63393389  0.68195783  0.43317659    -0.60090
N2909       N  0.65165200  0.64032180  0.44128259    -0.05120
N2910       N  0.68014546  0.65748424  0.44582258    -0.57930
N2911       N  0.62027409  0.60498704  0.41091543    -0.04790
N2912       N  0.62576521  0.60143748  0.39624851    -0.60440
C2913       C  0.65839334  0.58498083  0.39575914     0.96340
C2914       C  0.66874258  0.68328208  0.44083703     0.96120
N2915       N  0.00420659  0.63942278  0.44463583    -0.06020
N2916       N  0.97712610  0.65734769  0.44944433    -0.58540
N2917       N  0.52583606  0.60562553  0.41218085    -0.04140
N2918       N  0.51660721  0.60302989  0.39764567    -0.59790
N2919       N  0.99936426  0.59244315  0.42059146    -0.06050
N2920       N  0.97194582  0.58049005  0.41194981    -0.58800
N2921       N  0.53001170  0.65305771  0.43604556    -0.03790
N2922       N  0.52108435  0.68042218  0.43500431    -0.59880
Mn2923     Mn  0.57498270  0.63035870  0.42274325     1.18440
C2924       C  0.98846726  0.68275750  0.44352011     0.98420
C2925       C  0.98312496  0.58712293  0.39770166     0.99080
N2926       N  0.65182899  0.59835145  0.46790669    -0.06070
N2927       N  0.66134545  0.62163985  0.47567272    -0.62380
N2928       N  0.62711548  0.53305640  0.45198869    -0.04880
N2929       N  0.63608314  0.00571618  0.45303853    -0.63060
N2930       N  0.65440745  0.54726575  0.44467338    -0.05580
N2931       N  0.68263844  0.52984360  0.44036519    -0.62650
N2932       N  0.62716680  0.58248239  0.47571540    -0.04480
N2933       N  0.62033403  0.59446221  0.48896680    -0.63340
Mn2934     Mn  0.65259760  0.59423058  0.44315563     1.10660
C2935       C  0.64194268  0.61865129  0.48891647     0.99640
C2936       C  0.67044768  0.00405859  0.44554629     0.99720
N2937       N  0.00452226  0.54612221  0.44586173    -0.05590
N2938       N  0.97652662  0.52892270  0.44094529    -0.60960
N2939       N  0.54181614  0.58114229  0.47655616    -0.04910
N2940       N  0.54001378  0.57488092  0.49091871    -0.57690
N2941       N  0.00749033  0.58865368  0.47106466    -0.06220
N2942       N  0.98058074  0.58370726  0.48168834    -0.60530
N2943       N  0.53302477  0.53187553  0.45261278    -0.05200
N2944       N  0.52446071  0.00413583  0.45245098    -0.57710
Mn2945     Mn  0.00257279  0.59209409  0.44568614     1.20190
Mn2946     Mn  0.58245247  0.55624440  0.46407900     1.10090
Cl2947     Cl  0.57775431  0.59327210  0.44358781    -0.85680
C2948       C  0.98930875  0.00289131  0.44498235     0.96650
C2949       C  0.00206365  0.57564474  0.49415743     0.96450
N2950       N  0.89364615  0.84167998  0.41688692    -0.05840
N2951       N  0.91537526  0.82789038  0.40705162    -0.57960
N2952       N  0.87247876  0.90465780  0.43282394    -0.05520
N2953       N  0.88172357  0.93226366  0.43223570    -0.60090
N2954       N  0.90105583  0.89046821  0.43949158    -0.05120
N2955       N  0.92992910  0.90764716  0.44362984    -0.57930
N2956       N  0.86448355  0.85500176  0.40997355    -0.04790
N2957       N  0.86584715  0.85054538  0.39523290    -0.60440
C2958       C  0.89741111  0.83336711  0.39370714     0.96340
C2959       C  0.91756807  0.93353333  0.43916136     0.96120
N2960       N  0.75412327  0.88937767  0.44608594    -0.06020
N2961       N  0.72742219  0.90722958  0.45126385    -0.58540
N2962       N  0.77163443  0.85563647  0.41335755    -0.04140
N2963       N  0.76096953  0.85261617  0.39900579    -0.59790
N2964       N  0.74652299  0.84225176  0.42225712    -0.06050
N2965       N  0.71852715  0.82974411  0.41415320    -0.58800
N2966       N  0.77884325  0.90305773  0.43705744    -0.03790
N2967       N  0.76956844  0.93034715  0.43606609    -0.59880
Mn2968     Mn  0.82174238  0.88048321  0.42284855     1.18440
C2969       C  0.73792237  0.93262201  0.44509257     0.98420
C2970       C  0.72803221  0.83624016  0.39972032     0.99080
N2971       N  0.90412019  0.84922354  0.46633252    -0.06070
N2972       N  0.91331355  0.87302384  0.47375570    -0.62380
N2973       N  0.87831642  0.78335465  0.45118151    -0.04880
N2974       N  0.88775212  0.75610498  0.45229959    -0.63060
N2975       N  0.90440777  0.79747809  0.44320286    -0.05580
N2976       N  0.93225390  0.78006299  0.43851462    -0.62650
N2977       N  0.88083584  0.83317268  0.47467699    -0.04480
N2978       N  0.87487790  0.84546972  0.48791251    -0.63340
Mn2979     Mn  0.90211268  0.84443912  0.44144940     1.10660
C2980       C  0.89535009  0.87012412  0.48732719     0.99640
C2981       C  0.92109198  0.75437306  0.44416173     0.99720
N2982       N  0.75510713  0.79602609  0.44730636    -0.05590
N2983       N  0.72686493  0.77869257  0.44274762    -0.60960
N2984       N  0.79554831  0.83106398  0.47734061    -0.04910
N2985       N  0.79483947  0.82408777  0.49164119    -0.57690
N2986       N  0.76071228  0.83860052  0.47234812    -0.06220
N2987       N  0.73468258  0.83299007  0.48318503    -0.60530
N2988       N  0.78453330  0.78188221  0.45350004    -0.05200
N2989       N  0.77640829  0.75407679  0.45331239    -0.57710
Mn2990     Mn  0.75284910  0.84201814  0.44716625     1.20190
Mn2991     Mn  0.83503988  0.80649840  0.46404093     1.10090
Cl2992     Cl  0.82755307  0.84339544  0.44359271    -0.85680
C2993       C  0.74047881  0.75269428  0.44642618     0.96650
C2994       C  0.75708871  0.82440890  0.49528363     0.96450
N2995       N  0.99816505  0.97468270  0.53621868    -0.05840
N2996       N  0.52025705  0.99444531  0.52940272    -0.57960
N2997       N  0.96685069  0.52546947  0.55363597    -0.05520
N2998       N  0.97528698  0.55315579  0.55289298    -0.60090
N2999       N  0.99377418  0.51243650  0.56188966    -0.05120
N3000       N  0.52078554  0.53036867  0.56682090    -0.57930
N3001       N  0.96391854  0.97437449  0.52928905    -0.04790
N3002       N  0.96574756  0.98753336  0.51619795    -0.60440
C3003       C  0.49924173  0.00216751  0.51687792     0.96340
C3004       C  0.00867264  0.55563509  0.56136800     0.96120
N3005       N  0.84636837  0.50848040  0.55958930    -0.06020
N3006       N  0.81812716  0.52591726  0.56396531    -0.58540
N3007       N  0.87815100  0.97279035  0.52886003    -0.04140
N3008       N  0.88667381  0.96084412  0.51574987    -0.59790
N3009       N  0.85283628  0.95686385  0.53631700    -0.06050
N3010       N  0.84453967  0.93345685  0.52840734    -0.58800
N3011       N  0.87367004  0.52277074  0.55230874    -0.03790
N3012       N  0.86476120  0.55019905  0.55142549    -0.59880
Mn3013     Mn  0.92060960  0.49961136  0.54108947     1.18440
C3014       C  0.83024293  0.55184634  0.55887559     0.98420
C3015       C  0.86537310  0.93653289  0.51546038     0.99080
N3016       N  0.00060522  0.96400215  0.58621312    -0.06070
N3017       N  0.52871550  0.47375235  0.59527616    -0.62380
N3018       N  0.97368801  0.90442491  0.56894137    -0.04880
N3019       N  0.98323533  0.87708533  0.56923729    -0.63060
N3020       N  0.49975641  0.91930621  0.56103669    -0.05580
N3021       N  0.52762618  0.90220068  0.55597622    -0.62650
N3022       N  0.97423386  0.94947021  0.59398209    -0.04480
N3023       N  0.98419094  0.94886271  0.60850846    -0.63340
Mn3024     Mn  0.49899339  0.96703375  0.56129213     1.10660
C3025       C  0.51797339  0.96437724  0.60912012     0.99640
C3026       C  0.51655731  0.87598693  0.56101905     0.99720
N3027       N  0.85168661  0.91541500  0.56288237    -0.05590
N3028       N  0.82348997  0.89811268  0.55827727    -0.60960
N3029       N  0.87966027  0.94969800  0.59385621    -0.04910
N3030       N  0.87310686  0.95205452  0.60852338    -0.57690
N3031       N  0.85188978  0.96301137  0.58606647    -0.06220
N3032       N  0.82603337  0.97457692  0.59523069    -0.60530
N3033       N  0.87910211  0.90145394  0.57037408    -0.05200
N3034       N  0.86960206  0.87396195  0.57114843    -0.57710
Mn3035     Mn  0.84938463  0.96132711  0.56122575     1.20190
Mn3036     Mn  0.92668583  0.92541787  0.58224075     1.10090
Cl3037     Cl  0.92401720  0.96342921  0.56192996    -0.85680
C3038       C  0.83511882  0.87245547  0.56333706     0.96650
C3039       C  0.83990367  0.96784096  0.60911632     0.96450
N3040       N  0.74815981  0.72264873  0.53644594    -0.05840
N3041       N  0.77202608  0.74103421  0.52947747    -0.57960
N3042       N  0.71797054  0.77474631  0.55345860    -0.05520
N3043       N  0.72698671  0.80229962  0.55247147    -0.60090
N3044       N  0.74477620  0.76158539  0.56171703    -0.05120
N3045       N  0.77229704  0.77934233  0.56641506    -0.57930
N3046       N  0.71395917  0.72365558  0.52946857    -0.04790
N3047       N  0.71693624  0.73658278  0.51634787    -0.60440
C3048       C  0.75173992  0.74953907  0.51693872     0.96340
C3049       C  0.76061053  0.80460293  0.56080183     0.96120
N3050       N  0.59728581  0.75936511  0.55991101    -0.06020
N3051       N  0.56936337  0.77723737  0.56409942    -0.58540
N3052       N  0.62771813  0.72252993  0.52938986    -0.04140
N3053       N  0.63566913  0.70995506  0.51639719    -0.59790
N3054       N  0.60195405  0.70731480  0.53704692    -0.06050
N3055       N  0.59268070  0.68383359  0.52938543    -0.58800
N3056       N  0.62474310  0.77311512  0.55242252    -0.03790
N3057       N  0.61626446  0.80057317  0.55122350    -0.59880
Mn3058     Mn  0.67103521  0.74926892  0.54121602     1.18440
C3059       C  0.58186623  0.80284254  0.55869215     0.98420
C3060       C  0.61344116  0.68607089  0.51639768     0.99080
N3061       N  0.75067446  0.71378134  0.58645209    -0.06070
N3062       N  0.77902936  0.72352432  0.59539635    -0.62380
N3063       N  0.72254311  0.65389440  0.56965148    -0.04880
N3064       N  0.73163267  0.62645982  0.57007640    -0.63060
N3065       N  0.74877987  0.66835602  0.56162981    -0.05580
N3066       N  0.77626106  0.65091576  0.55659338    -0.62650
N3067       N  0.72414609  0.69969992  0.59435559    -0.04480
N3068       N  0.73419732  0.69940858  0.60887345    -0.63340
Mn3069     Mn  0.74890104  0.71599463  0.56154051     1.10660
C3070       C  0.76823991  0.71463456  0.60932639     0.99640
C3071       C  0.76483960  0.62490880  0.56179241     0.99720
N3072       N  0.60047377  0.66629233  0.56379663    -0.05590
N3073       N  0.57188505  0.64923049  0.55929808    -0.60960
N3074       N  0.62984034  0.70087910  0.59443227    -0.04910
N3075       N  0.62336734  0.70332560  0.60909743    -0.57690
N3076       N  0.60226469  0.71439316  0.58665247    -0.06220
N3077       N  0.57660677  0.72618661  0.59580879    -0.60530
N3078       N  0.62778302  0.65212446  0.57123520    -0.05200
N3079       N  0.61780577  0.62471988  0.57208268    -0.57710
Mn3080     Mn  0.59920093  0.71220508  0.56189351     1.20190
Mn3081     Mn  0.67608592  0.67585714  0.58283693     1.10090
Cl3082     Cl  0.67382846  0.71343548  0.56210351    -0.85680
C3083       C  0.58312387  0.62349804  0.56437822     0.96650
C3084       C  0.59043763  0.71940498  0.60968711     0.96450
N3085       N  0.85853064  0.72396465  0.66942021    -0.05840
N3086       N  0.82932176  0.73121952  0.66023156    -0.57960
N3087       N  0.88619022  0.66536996  0.68717009    -0.05520
N3088       N  0.87786296  0.63780830  0.68711327    -0.60090
N3089       N  0.85939452  0.67967975  0.69483170    -0.05120
N3090       N  0.83213053  0.66189216  0.69996643    -0.57930
N3091       N  0.88563292  0.70985804  0.66195327    -0.04790
N3092       N  0.87509339  0.70708714  0.64757556    -0.60440
C3093       C  0.84025083  0.72087022  0.64664535     0.96340
C3094       C  0.84450170  0.63596336  0.69521628     0.96120
N3095       N  0.50714259  0.67644790  0.69352188    -0.06020
N3096       N  0.53611565  0.65942059  0.69752240    -0.58540
N3097       N  0.98066793  0.71062240  0.66237989    -0.04140
N3098       N  0.98948391  0.71068103  0.64785000    -0.59790
N3099       N  0.50852646  0.72382573  0.67022655    -0.06050
N3100       N  0.53669445  0.73307890  0.66121651    -0.58800
N3101       N  0.98000056  0.66257259  0.68581752    -0.03790
N3102       N  0.99034507  0.63546714  0.68428397    -0.59880
Mn3103     Mn  0.93295260  0.68661410  0.67397176     1.18440
C3104       C  0.52510672  0.63399320  0.69187508     0.98420
C3105       C  0.52405157  0.72511503  0.64734456     0.99080
N3106       N  0.85782090  0.73402403  0.71967895    -0.06070
N3107       N  0.82855893  0.74338984  0.72834958    -0.62380
N3108       N  0.89180181  0.78710835  0.70104600    -0.04880
N3109       N  0.88378699  0.81479152  0.70125342    -0.63060
N3110       N  0.86406210  0.77336097  0.69345138    -0.05580
N3111       N  0.83710393  0.79101771  0.68831656    -0.62650
N3112       N  0.89117551  0.74081030  0.72633179    -0.04480
N3113       N  0.88561682  0.75114059  0.73987138    -0.63340
Mn3114     Mn  0.85889134  0.72732654  0.69439152     1.10660
C3115       C  0.84687262  0.75336093  0.74113852     0.99640
C3116       C  0.84997275  0.81669532  0.69303880     0.99720
N3117       N  0.51269370  0.76933937  0.69642058    -0.05590
N3118       N  0.54185801  0.78652171  0.69235900    -0.60960
N3119       N  0.97659035  0.73430302  0.72702318    -0.04910
N3120       N  0.96305365  0.72089708  0.73915806    -0.57690
N3121       N  0.50172919  0.71788716  0.71985255    -0.06220
N3122       N  0.50452042  0.69291399  0.72696108    -0.60530
N3123       N  0.98507759  0.78390572  0.70314442    -0.05200
N3124       N  0.99458503  0.81123320  0.70396980    -0.57710
Mn3125     Mn  0.50889270  0.72240958  0.69509113     1.20190
Mn3126     Mn  0.93681669  0.76228480  0.71426564     1.10090
Cl3127     Cl  0.93425728  0.72477345  0.69420258    -0.85680
C3128       C  0.52979620  0.81253107  0.69707232     0.96650
C3129       C  0.48041645  0.69520232  0.73900835     0.96450
N3130       N  0.64007775  0.60109843  0.83512082    -0.05840
N3131       N  0.66844547  0.61120889  0.84388266    -0.57960
N3132       N  0.61016325  0.53948135  0.82042030    -0.05520
N3133       N  0.62063403  0.51240966  0.82218935    -0.60090
N3134       N  0.63666972  0.55310364  0.81234829    -0.05120
N3135       N  0.66527226  0.53594503  0.80833098    -0.57930
N3136       N  0.61270458  0.58825529  0.84329019    -0.04790
N3137       N  0.62205803  0.58941551  0.85779954    -0.60440
C3138       C  0.65644845  0.60411123  0.85793473     0.96340
C3139       C  0.65475399  0.51069940  0.81435554     0.96120
N3140       N  0.98899793  0.55681213  0.81195313    -0.06020
N3141       N  0.96156558  0.53910582  0.80681430    -0.58540
N3142       N  0.51772263  0.58778136  0.84437334    -0.04140
N3143       N  0.50814064  0.58566597  0.85884863    -0.59790
N3144       N  0.99037529  0.60190980  0.83686641    -0.06050
N3145       N  0.96198315  0.60983482  0.84609861    -0.58800
N3146       N  0.51606766  0.54244771  0.81962047    -0.03790
N3147       N  0.50768909  0.51486540  0.81970725    -0.59880
Mn3148     Mn  0.56404219  0.56394889  0.83231230     1.18440
C3149       C  0.97398601  0.51312982  0.81160832     0.98420
C3150       C  0.97363227  0.59988012  0.85976847     0.99080
N3151       N  0.62970028  0.59391017  0.78557054    -0.06070
N3152       N  0.63197673  0.56886834  0.77858940    -0.62380
N3153       N  0.61521344  0.66056682  0.80179870    -0.04880
N3154       N  0.62476249  0.68792691  0.80101417    -0.63060
N3155       N  0.64303851  0.64587884  0.80851206    -0.05580
N3156       N  0.67234337  0.66297097  0.81262016    -0.62650
N3157       N  0.60420272  0.61033060  0.77840403    -0.04480
N3158       N  0.58984960  0.59684539  0.76640323    -0.63340
Mn3159     Mn  0.63873732  0.59898302  0.81027936     1.10660
C3160       C  0.60717084  0.57110808  0.76660612     0.99640
C3161       C  0.66026022  0.68907903  0.80791502     0.99720
N3162       N  0.99450474  0.65052496  0.81224745    -0.05590
N3163       N  0.96791799  0.66832360  0.81733392    -0.60960
N3164       N  0.51891829  0.61734312  0.77971076    -0.04910
N3165       N  0.51204611  0.62660163  0.76598740    -0.57690
N3166       N  0.98634171  0.60992341  0.78659938    -0.06220
N3167       N  0.95605470  0.61747172  0.77779294    -0.60530
N3168       N  0.52180289  0.66409848  0.80441200    -0.05200
N3169       N  0.51377913  0.69178561  0.80396454    -0.57710
Mn3170     Mn  0.98902468  0.60440797  0.81188684     1.20190
Mn3171     Mn  0.56573471  0.63889167  0.79117274     1.10090
Cl3172     Cl  0.56427441  0.60168401  0.81163721    -0.85680
C3173       C  0.98048499  0.69389191  0.81230833     0.96650
C3174       C  0.97310435  0.62719046  0.76476100     0.96450
N3175       N  0.60827649  0.97377374  0.66926539    -0.05840
N3176       N  0.57895892  0.98094767  0.66010668    -0.57960
N3177       N  0.63622839  0.91522258  0.68701216    -0.05520
N3178       N  0.62796658  0.88764852  0.68701388    -0.60090
N3179       N  0.60948039  0.92953363  0.69469518    -0.05120
N3180       N  0.58233156  0.91174719  0.69991155    -0.57930
N3181       N  0.63534561  0.95967265  0.66177372    -0.04790
N3182       N  0.62468282  0.95683949  0.64741283    -0.60440
C3183       C  0.58979192  0.97056171  0.64651396     0.96340
C3184       C  0.59470573  0.88581398  0.69518146     0.96120
N3185       N  0.75725182  0.92648742  0.69316677    -0.06020
N3186       N  0.78628394  0.90952822  0.69717594    -0.58540
N3187       N  0.73042556  0.96046853  0.66203845    -0.04140
N3188       N  0.73925124  0.96018131  0.64751045    -0.59790
N3189       N  0.75836478  0.97374636  0.66981311    -0.06050
N3190       N  0.78661188  0.98268119  0.66074077    -0.58800
N3191       N  0.73006718  0.91252843  0.68552936    -0.03790
N3192       N  0.74045426  0.88541914  0.68404472    -0.59880
Mn3193     Mn  0.68283462  0.93648761  0.67373501     1.18440
C3194       C  0.77528554  0.88405058  0.69159912     0.98420
C3195       C  0.77391670  0.97446720  0.64690844     0.99080
N3196       N  0.60803502  0.98368396  0.71954632    -0.06070
N3197       N  0.57875182  0.99249456  0.72836852    -0.62380
N3198       N  0.64173749  0.53696641  0.70089919    -0.04880
N3199       N  0.63366394  0.56463554  0.70117270    -0.63060
N3200       N  0.61390938  0.52321821  0.69335003    -0.05580
N3201       N  0.58682401  0.54087771  0.68831236    -0.62650
N3202       N  0.64138050  0.99072735  0.72612560    -0.04480
N3203       N  0.63590918  0.00079556  0.73972378    -0.63340
Mn3204     Mn  0.60885170  0.97714340  0.69424897     1.10660
C3205       C  0.59714552  0.00245926  0.74114398     0.99640
C3206       C  0.59971541  0.56654906  0.69304609     0.99720
N3207       N  0.76261623  0.51938430  0.69607705    -0.05590
N3208       N  0.79173900  0.53663669  0.69204332    -0.60960
N3209       N  0.72677004  0.98418792  0.72671446    -0.04910
N3210       N  0.71325566  0.97071192  0.73883424    -0.57690
N3211       N  0.75184968  0.96779467  0.71949750    -0.06220
N3212       N  0.75459334  0.94276271  0.72655993    -0.60530
N3213       N  0.73502212  0.53386981  0.70286432    -0.05200
N3214       N  0.74448887  0.56119573  0.70375338    -0.57710
Mn3215     Mn  0.75889199  0.97242393  0.69471592     1.20190
Mn3216     Mn  0.68691602  0.51216987  0.71402809     1.10090
Cl3217     Cl  0.68423575  0.97469467  0.69394151    -0.85680
C3218       C  0.77965507  0.56259817  0.69683247     0.96650
C3219       C  0.73053058  0.94498741  0.73862568     0.96450
N3220       N  0.89006895  0.85095627  0.83511116    -0.05840
N3221       N  0.91821215  0.86126532  0.84391484    -0.57960
N3222       N  0.86070230  0.78952111  0.82005459    -0.05520
N3223       N  0.87143376  0.76246346  0.82163098    -0.60090
N3224       N  0.88700086  0.80344814  0.81202447    -0.05120
N3225       N  0.91572005  0.78651952  0.80785537    -0.57930
N3226       N  0.86285607  0.83782212  0.84323424    -0.04790
N3227       N  0.87211129  0.83896604  0.85775556    -0.60440
C3228       C  0.90626998  0.85395480  0.85794387     0.96340
C3229       C  0.90548784  0.76108749  0.81373256     0.96120
N3230       N  0.73937793  0.80640796  0.81165157    -0.06020
N3231       N  0.71211667  0.78865435  0.80642077    -0.58540
N3232       N  0.76773813  0.83693572  0.84429515    -0.04140
N3233       N  0.75848807  0.83492744  0.85881025    -0.59790
N3234       N  0.74020829  0.85101960  0.83684632    -0.06050
N3235       N  0.71204161  0.85901753  0.84616898    -0.58800
N3236       N  0.76654081  0.79203995  0.81928061    -0.03790
N3237       N  0.75837982  0.76442025  0.81923490    -0.59880
Mn3238     Mn  0.81436973  0.81347980  0.83214001     1.18440
C3239       C  0.72472836  0.76265566  0.81110383     0.98420
C3240       C  0.72398846  0.84913899  0.85982335     0.99080
N3241       N  0.87972178  0.84483630  0.78553200    -0.06070
N3242       N  0.88214065  0.81997280  0.77838444    -0.62380
N3243       N  0.86465651  0.91104122  0.80226409    -0.04880
N3244       N  0.87401762  0.93844452  0.80162788    -0.63060
N3245       N  0.89264860  0.89630180  0.80882540    -0.05580
N3246       N  0.92189746  0.91339193  0.81298907    -0.62650
N3247       N  0.85414201  0.86134710  0.77848546    -0.04480
N3248       N  0.83987521  0.84811089  0.76638989    -0.63340
Mn3249     Mn  0.88864505  0.84937967  0.81025046     1.10660
C3250       C  0.85733599  0.82242124  0.76641323     0.99640
C3251       C  0.90957983  0.93955967  0.80847738     0.99720
N3252       N  0.74387232  0.90015419  0.81250012    -0.05590
N3253       N  0.71714631  0.91771811  0.81770551    -0.60960
N3254       N  0.76899613  0.86796012  0.77982542    -0.04910
N3255       N  0.76238812  0.87730599  0.76610346    -0.57690
N3256       N  0.73638424  0.86008044  0.78654038    -0.06220
N3257       N  0.70620346  0.86733631  0.77759817    -0.60530
N3258       N  0.77123399  0.91404725  0.80485600    -0.05200
N3259       N  0.76310666  0.94172305  0.80465325    -0.57710
Mn3260     Mn  0.73882208  0.85402928  0.81182559     1.20190
Mn3261     Mn  0.81547184  0.88937475  0.79149895     1.10090
Cl3262     Cl  0.81401031  0.85166071  0.81182098    -0.85680
C3263       C  0.72969043  0.94347637  0.81294951     0.96650
C3264       C  0.72349668  0.87737680  0.76466962     0.96450
C3265       C  0.71559694  0.92063436  0.74716517    -0.12990
C3266       C  0.70888671  0.89952359  0.75482043    -0.14550
C3267       C  0.58445405  0.52552577  0.75067044    -0.12990
C3268       C  0.59189468  0.54675420  0.75812152    -0.14550
C3269       C  0.95166875  0.98712536  0.81012297    -0.12990
C3270       C  0.93283807  0.96522095  0.80950541    -0.14550
C3271       C  0.70239872  0.73665029  0.80955192    -0.12990
C3272       C  0.68357844  0.71473350  0.80891140    -0.14550
C3273       C  0.68094547  0.98682517  0.81440890    -0.12990
C3274       C  0.70499647  0.96807214  0.81384870    -0.14550
C3275       C  0.95588850  0.71856781  0.81304426    -0.12990
C3276       C  0.93179962  0.73730043  0.81360881    -0.14550
C3277       C  0.83445592  0.77689066  0.75045145    -0.12990
C3278       C  0.84201793  0.79817560  0.75784533    -0.14550
C3279       C  0.55327828  0.83806030  0.69651087    -0.12990
C3280       C  0.57209862  0.85995738  0.69636645    -0.14550
C3281       C  0.82184317  0.61010394  0.69630604    -0.12990
C3282       C  0.80309487  0.58816566  0.69635493    -0.14550
C3283       C  0.82533594  0.84133753  0.69220980    -0.12990
C3284       C  0.80135744  0.86014915  0.69167701    -0.14550
C3285       C  0.57505401  0.59119592  0.69231692    -0.12990
C3286       C  0.55114687  0.61006632  0.69187929    -0.14550
C3287       C  0.95869666  0.64966456  0.75509139    -0.12990
C3288       C  0.46544273  0.67087594  0.74753302    -0.14550
C3289       C  0.56874434  0.72444081  0.62320575    -0.12990
C3290       C  0.54833791  0.72630235  0.63421231    -0.14550
C3291       C  0.79276652  0.71804588  0.62265609    -0.12990
C3292       C  0.81458614  0.72005624  0.63351914    -0.14550
C3293       C  0.81838086  0.97304749  0.62268041    -0.12990
C3294       C  0.79818896  0.97522473  0.63374218    -0.14550
C3295       C  0.54231636  0.96769309  0.62251227    -0.12990
C3296       C  0.56406175  0.96970497  0.63340097    -0.14550
C3297       C  0.55929796  0.82884530  0.55934023    -0.12990
C3298       C  0.54011689  0.85054859  0.55974044    -0.14550
C3299       C  0.78797386  0.59925924  0.56048008    -0.12990
C3300       C  0.80728310  0.57763215  0.55986376    -0.14550
C3301       C  0.53338249  0.58041231  0.56225907    -0.12990
C3302       C  0.55752527  0.59920610  0.56341162    -0.14550
C3303       C  0.80979635  0.84802623  0.56244669    -0.12990
C3304       C  0.78569305  0.82918849  0.56146431    -0.14550
C3305       C  0.74707277  0.80152613  0.50533468    -0.12990
C3306       C  0.75219329  0.77837704  0.51119471    -0.14550
C3307       C  0.88614625  0.89387872  0.49723856    -0.12990
C3308       C  0.87519101  0.91313036  0.50540280    -0.14550
C3309       C  0.49751860  0.53087883  0.51090283    -0.12990
C3310       C  0.99139665  0.55350185  0.50458334    -0.14550
C3311       C  0.96500190  0.70809371  0.44393144    -0.12990
C3312       C  0.94498746  0.72925613  0.44375568    -0.14550
C3313       C  0.71416940  0.95775307  0.44562796    -0.12990
C3314       C  0.69412841  0.97887060  0.44536953    -0.14550
C3315       C  0.94200272  0.95853497  0.44084059    -0.12990
C3316       C  0.96520576  0.97783084  0.44287227    -0.14550
C3317       C  0.69354144  0.70810712  0.44245884    -0.12990
C3318       C  0.71671578  0.72744671  0.44440797    -0.14550
C3319       C  0.63286563  0.64234193  0.49880784    -0.12990
C3320       C  0.62242158  0.66206984  0.50670127    -0.14550
C3321       C  0.92697393  0.59874159  0.88383333    -0.12990
C3322       C  0.94873830  0.59990455  0.87301226    -0.14550
C3323       C  0.68101625  0.60666757  0.87104503    -0.12990
C3324       C  0.70159153  0.60572832  0.88214243    -0.14550
C3325       C  0.67805896  0.84868933  0.88413368    -0.12990
C3326       C  0.69956640  0.84953346  0.87321625    -0.14550
C3327       C  0.95123069  0.85632379  0.88220015    -0.12990
C3328       C  0.93062091  0.85686755  0.87110028    -0.14550
C3329       C  0.92276833  0.98286153  0.94605714    -0.12990
C3330       C  0.94223686  0.96129877  0.94641725    -0.14550
C3331       C  0.67125116  0.73202424  0.94553964    -0.12990
C3332       C  0.69073910  0.71049697  0.94582212    -0.14550
C3333       C  0.91688271  0.71278420  0.94346532    -0.12990
C3334       C  0.94075089  0.73174879  0.94220017    -0.14550
C3335       C  0.66816735  0.96205230  0.94453271    -0.12990
C3336       C  0.69199063  0.98103159  0.94315587    -0.14550
C3337       C  0.75609639  0.54493542  0.99945997    -0.12990
C3338       C  0.76655681  0.52527979  0.00755420    -0.14550
C3339       C  0.62612381  0.93033835  0.00285906    -0.12990
C3340       C  0.63250016  0.90757152  0.99686156    -0.14550
C3341       C  0.88159491  0.66197698  0.99496231    -0.12990
C3342       C  0.87579988  0.68466720  0.00111620    -0.14550
C3343       C  0.57987287  0.61018514  0.06208288    -0.12990
C3344       C  0.59977857  0.58892187  0.06212301    -0.14550
C3345       C  0.84762376  0.83809498  0.06079058    -0.12990
C3346       C  0.82764990  0.85926986  0.06068450    -0.14550
C3347       C  0.85126582  0.60783387  0.06287010    -0.12990
C3348       C  0.82813143  0.58849304  0.06472378    -0.14550
C3349       C  0.59929815  0.85859433  0.06210204    -0.12990
C3350       C  0.57584904  0.83944110  0.06411494    -0.14550
C3351       C  0.51558031  0.77432071  0.00757069    -0.12990
C3352       C  0.50508910  0.79384363  0.99935953    -0.14550
C3353       C  0.56505027  0.71182481  0.12479828    -0.12990
C3354       C  0.58651612  0.70671025  0.13530363    -0.14550
C3355       C  0.83707373  0.71299571  0.12033743    -0.12990
C3356       C  0.81578666  0.70765753  0.13102840    -0.14550
C3357       C  0.83729896  0.95444506  0.13494383    -0.12990
C3358       C  0.81567394  0.95819135  0.12431572    -0.14550
C3359       C  0.57316114  0.95621713  0.13191450    -0.12990
C3360       C  0.59409894  0.96062992  0.12110027    -0.14550
C3361       C  0.59600650  0.58100599  0.19724169    -0.12990
C3362       C  0.57728986  0.55873934  0.19738878    -0.14550
C3363       C  0.83953516  0.83422708  0.19273954    -0.12990
C3364       C  0.82101505  0.81208574  0.19266511    -0.14550
C3365       C  0.84364573  0.56239421  0.19078365    -0.12990
C3366       C  0.82007529  0.58137195  0.18991343    -0.14550
C3367       C  0.57043084  0.83013586  0.19542875    -0.12990
C3368       C  0.59563129  0.81223527  0.19632705    -0.14550
C3369       C  0.91450127  0.82604281  0.37956800    -0.12990
C3370       C  0.93579178  0.82220997  0.36900418    -0.14550
C3371       C  0.68097759  0.82429721  0.37650404    -0.12990
C3372       C  0.70371690  0.82881432  0.38683962    -0.14550
C3373       C  0.61912830  0.78774357  0.25000426    -0.12990
C3374       C  0.61375995  0.76522627  0.24334522    -0.14550
C3375       C  0.54163716  0.84767834  0.24648358    -0.12990
C3376       C  0.55171762  0.86939632  0.23977970    -0.14550
C3377       C  0.96024947  0.57988091  0.38431012    -0.12990
C3378       C  0.93940697  0.57504011  0.37337898    -0.14550
C3379       C  0.70121508  0.57450228  0.37200877    -0.12990
C3380       C  0.67944548  0.57841626  0.38238920    -0.14550
C3381       C  0.76240634  0.62199559  0.25603354    -0.12990
C3382       C  0.76768289  0.64275124  0.24796280    -0.14550
C3383       C  0.93682821  0.68149307  0.31102494    -0.12990
C3384       C  0.95647216  0.70312562  0.31138254    -0.14550
C3385       C  0.67871672  0.93679387  0.31560695    -0.12990
C3386       C  0.69807527  0.95846884  0.31462831    -0.14550
C3387       C  0.71040433  0.68993611  0.31801842    -0.12990
C3388       C  0.68731363  0.70942507  0.31885311    -0.14550
C3389       C  0.94331334  0.92858133  0.31272390    -0.12990
C3390       C  0.91961499  0.94788488  0.31225326    -0.14550
C3391       C  0.92290605  0.52021879  0.25642695    -0.12990
C3392       C  0.92090643  0.49884031  0.24872559    -0.14550
loop_ 
_geom_bond_atom_site_label_1 
_geom_bond_atom_site_label_2 
_geom_bond_distance 
_geom_bond_site_symmetry_2 
_ccdc_geom_bond_type 
N1            N2   1.323       .  A
N1            N7   1.316       .  A
N1          Mn30   2.192       .  S
N2            C9   1.349       .  A
N3            N5   1.311       .  A
N3          N852   1.320   1_545  A
N3          Mn19   2.179       .  S
N4          N851   1.320       .  A
N4           C10   1.349       .  A
N5            N6   1.323       .  A
N5          Mn30   2.207       .  S
N6          C858   1.354   1_545  A
N7            N8   1.325       .  A
N7          Mn19   2.221       .  S
N8            C9   1.352       .  A
C9          C837   1.451       .  S
C10         N854   1.354       .  A
C10         C842   1.439       .  S
N11         N865   1.321       .  A
N11         N860   1.319   1_545  A
N11         Mn41   2.196       .  S
N12         N859   1.319       .  A
N12          C20   1.348       .  A
N13          N14   1.309       .  A
N13          N15   1.315       .  A
N13         Mn19   2.142       .  S
N14          C21   1.332       .  A
N15          N16   1.331       .  A
N15         Mn41   2.244       .  S
N16          C21   1.362       .  A
N17          N18   1.327       .  A
N17         N859   1.321       .  A
N17        Mn867   2.252       .  S
N18          C20   1.358       .  A
Mn19        N865   2.252       .  S
Mn19        Cl43   2.513       .  S
C20         C846   1.447       .  S
C21         C847   1.438       .  S
N22          N23   1.315       .  A
N22          N28   1.319       .  A
N22         Mn30   2.174       .  S
N23          C31   1.344       .  A
N24          N26   1.314       .  A
N24          N25   1.323       .  A
N24         Mn42   2.204       .  S
N25          C32   1.352       .  A
N26          N27   1.320       .  A
N26         Mn30   2.192       .  S
N27          C32   1.349       .  A
N28          N29   1.319       .  A
N28         Mn42   2.216       .  S
N29          C31   1.352       .  A
Mn30        Cl43   2.561       .  S
C31         C835   1.420       .  S
C32         C843   1.440       .  S
N33          N34   1.324       .  A
N33          N39   1.323       .  A
N33         Mn41   2.236       .  S
N34          C44   1.356       .  A
N35          N36   1.322       .  A
N35          N37   1.318       .  A
N35         Mn42   2.204       .  S
N36          C45   1.350       .  A
N37          N38   1.326       .  A
N37         Mn41   2.227       .  S
N38          C45   1.354       .  A
N39          N40   1.319       .  A
N39         Mn42   2.207       .  S
N40          C44   1.348       .  A
Mn41        Cl43   2.564       .  S
Mn42        Cl43   2.525       .  S
C44         C839   1.440       .  S
C45         C834   1.450       .  S
N46          N52   1.313       .  A
N46        N1743   1.324   1_455  A
N46         Mn75   2.217       .  S
N47        N1742   1.324       .  A
N47          C54   1.353       .  A
N48          N50   1.319       .  A
N48          N49   1.322       .  A
N48         Mn64   2.210       .  S
N49          C55   1.351       .  A
N50          N51   1.321       .  A
N50         Mn75   2.211       .  S
N51          C55   1.351       .  A
N52        N1749   1.323   1_455  A
N52         Mn64   2.197       .  S
N53        N1748   1.323       .  A
N53          C54   1.353       .  A
C54         C845   1.448       .  S
C55         C841   1.439       .  S
N56          N62   1.318       .  A
N56          N57   1.325       .  A
N56         Mn86   2.228       .  S
N57          C65   1.356       .  A
N58          N60   1.317       .  A
N58        N1755   1.317   1_455  A
N58         Mn64   2.191       .  S
N59        N1754   1.317       .  A
N59          C66   1.348       .  A
N60        N1757   1.320   1_455  A
N60         Mn86   2.196       .  S
N61        N1756   1.320       .  A
N61          C66   1.350       .  A
N62          N63   1.319       .  A
N62         Mn64   2.199       .  S
N63          C65   1.348       .  A
Mn64        Cl88   2.526       .  S
C65         C827   1.443       .  S
C66         C826   1.424       .  S
N67          N68   1.333       .  A
N67          N73   1.317       .  A
N67         Mn75   2.284       .  S
N68          C76   1.363       .  A
N69          N71   1.318       .  A
N69        N1766   1.333       .  A
N69         Mn87   2.281       .  S
N70        N1765   1.333       .  A
N70          C77   1.361       .  A
N71        N1768   1.313       .  A
N71         Mn75   2.146       .  S
N72        N1767   1.313       .  A
N72          C77   1.334       .  A
N73          N74   1.311       .  A
N73         Mn87   2.143       .  S
N74          C76   1.331       .  A
Mn75        Cl88   2.525       .  S
C76         C829   1.452       .  S
C77        C2527   1.457       .  S
N78          N84   1.321       .  A
N78        N1775   1.322   1_455  A
N78         Mn86   2.229       .  S
N79        N1774   1.322       .  A
N79          C89   1.353       .  A
N80          N81   1.319       .  A
N80          N82   1.313       .  A
N80         Mn87   2.198       .  S
N81          C90   1.348       .  A
N82          N83   1.324       .  A
N82         Mn86   2.196       .  S
N83          C90   1.354       .  A
N84        N1781   1.321   1_455  A
N84         Mn87   2.205       .  S
N85        N1780   1.321       .  A
N85          C89   1.350       .  A
Mn86        Cl88   2.544       .  S
Mn87        Cl88   2.505       .  S
C89         C840   1.441       .  S
C90         C844   1.440       .  S
N91          N92   1.335       .  A
N91        N1793   1.316       .  A
N91        Mn120   2.251       .  S
N92          C99   1.360       .  A
N93          N94   1.323       .  A
N93        N1791   1.321       .  A
N93        Mn109   2.245       .  S
N94        C1796   1.355       .  A
N95          N96   1.315       .  A
N95        N1789   1.321   1_455  A
N95        Mn120   2.161       .  S
N96         C100   1.342       .  A
N97        N1787   1.316       .  A
N97        N1794   1.314       .  A
N97        Mn109   2.156       .  S
N98        N1793   1.314       .  A
N98          C99   1.332       .  A
C99         C832   1.458       .  S
C100       N1790   1.355       .  A
C100        C823   1.429       .  S
N101        N107   1.309       .  A
N101        N102   1.323       .  A
N101       Mn131   2.196       .  S
N102        C110   1.353       .  A
N103        N104   1.325       .  A
N103        N105   1.317       .  A
N103       Mn109   2.197       .  S
N104        C111   1.346       .  A
N105        N106   1.324       .  A
N105       Mn131   2.199       .  S
N106        C111   1.349       .  A
N107        N108   1.320       .  A
N107       Mn109   2.183       .  S
N108        C110   1.349       .  A
Mn109      Cl133   2.502       .  S
C110        C819   1.440       .  S
C111       C1696   1.448       .  S
N112        N113   1.323       .  A
N112        N118   1.316       .  A
N112       Mn120   2.211       .  S
N113        C121   1.351       .  A
N114        N115   1.321       .  A
N114        N964   1.325   1_545  A
N114      Mn2676   2.227   1_445  S
N115        C122   1.350       .  A
N116        N962   1.325       .  A
N116        N965   1.327       .  A
N116       Mn120   2.256       .  S
N117        N964   1.327   1_545  A
N117        C122   1.359       .  A
N118        N119   1.322       .  A
N118      Mn1828   2.197   1_455  S
N119        C121   1.351       .  A
Mn120     Cl1829   2.549   1_455  S
C121        C815   1.444       .  S
C122        C818   1.454       .  S
N123        N124   1.316   1_565  A
N123        N129   1.313   1_565  A
N123       Mn979   2.161       .  S
N124        C134   1.342       .  A
N125        N126   1.320       .  A
N125        N127   1.321       .  A
N125       Mn132   2.226       .  S
N126        C135   1.352       .  A
N127        N128   1.318       .  A
N127       Mn131   2.189       .  S
N128        C135   1.347       .  A
N129        N130   1.322       .  A
N129       Mn980   2.202   1_545  S
N130        C134   1.353       .  A
Mn131       N971   2.161       .  S
Mn131      Cl133   2.549       .  S
Mn132      N2658   2.227       .  S
Mn132      N1814   2.197       .  S
Mn132       N977   2.202       .  S
Mn132      Cl133   2.522       .  S
Cl133     Mn1816   2.549       .  S
C134        C821   1.426       .  S
C135        C813   1.428       .  S
N136        N137   1.334       .  A
N136        N142   1.319       .  A
N136       Mn165   2.235       .  S
N137        C144   1.357       .  A
N138        N140   1.318       .  A
N138        N139   1.325       .  A
N138       Mn154   2.248       .  S
N139        C145   1.358       .  A
N140        N141   1.313       .  A
N140       Mn165   2.151       .  S
N141        C145   1.340       .  A
N142        N143   1.314       .  A
N142       Mn154   2.161       .  S
N143        C144   1.333       .  A
C144        C830   1.455       .  S
C145        C824   1.428       .  S
N146        N152   1.310       .  A
N146        N147   1.323       .  A
N146       Mn176   2.195       .  S
N147        C155   1.353       .  A
N148        N149   1.325       .  A
N148        N150   1.317       .  A
N148       Mn154   2.210       .  S
N149        C156   1.350       .  A
N150        N151   1.325       .  A
N150       Mn176   2.208       .  S
N151        C156   1.350       .  A
N152        N153   1.320       .  A
N152       Mn154   2.184       .  S
N153        C155   1.349       .  A
Mn154      Cl178   2.516       .  S
C155        C820   1.440       .  S
C156        C838   1.451       .  S
N157        N158   1.316       .  A
N157        N163   1.315       .  A
N157       Mn165   2.178       .  S
N158        C166   1.343       .  A
N159        N161   1.326       .  A
N159        N160   1.323       .  A
N159       Mn177   2.243       .  S
N160        C167   1.352       .  A
N161        N162   1.326       .  A
N161       Mn165   2.244       .  S
N162        C167   1.357       .  A
N163        N164   1.322       .  A
N163       Mn177   2.199       .  S
N164        C166   1.353       .  A
Mn165      Cl178   2.542       .  S
C166        C810   1.427       .  S
C167        C817   1.454       .  S
N168        N169   1.314       .  A
N168        N174   1.313       .  A
N168       Mn176   2.161       .  S
N169        C179   1.342       .  A
N170        N171   1.328       .  A
N170        N172   1.321       .  A
N170       Mn177   2.260       .  S
N171        C180   1.360       .  A
N172        N173   1.320       .  A
N172       Mn176   2.203       .  S
N173        C180   1.349       .  A
N174        N175   1.323       .  A
N174       Mn177   2.204       .  S
N175        C179   1.355       .  A
Mn176      Cl178   2.546       .  S
Mn177      Cl178   2.540       .  S
C179        C822   1.425       .  S
C180        C812   1.455       .  S
N181        N182   1.323       .  A
N181        N187   1.319       .  A
N181       Mn210   2.214       .  S
N182        C189   1.350       .  A
N183        N185   1.322       .  A
N183        N184   1.319       .  A
N183       Mn199   2.214       .  S
N184        C190   1.349       .  A
N185        N186   1.321       .  A
N185       Mn210   2.211       .  S
N186        C190   1.351       .  A
N187        N188   1.327       .  A
N187       Mn199   2.242       .  S
N188        C189   1.358       .  A
C189        C811   1.455       .  S
C190        C801   1.432       .  S
N191        N192   1.315       .  A
N191       N1893   1.315       .  A
N191       Mn221   2.156       .  S
N192        C200   1.340       .  A
N193        N194   1.323       .  A
N193       N1891   1.320       .  A
N193       Mn199   2.227       .  S
N194       C1897   1.355       .  A
N195        N196   1.315       .  A
N195       N1889   1.320       .  A
N195       Mn221   2.179       .  S
N196        C201   1.344       .  A
N197        N198   1.328       .  A
N197       N1887   1.315       .  A
N197       Mn199   2.242       .  S
N198       C1896   1.361       .  A
Mn199      Cl223   2.530       .  S
C200       N1894   1.361       .  A
C200        C806   1.438       .  S
C201       N1890   1.355       .  A
C201        C809   1.426       .  S
N202        N203   1.332       .  A
N202        N208   1.309       .  A
N202       Mn210   2.246       .  S
N203        C211   1.369       .  A
N204        N206   1.317       .  A
N204        N205   1.327       .  A
N204       Mn222   2.256       .  S
N205        C212   1.361       .  A
N206        N207   1.314       .  A
N206       Mn210   2.152       .  S
N207        C212   1.341       .  A
N208        N209   1.302       .  A
N208       Mn222   2.125       .  S
N209        C211   1.323       .  A
Mn210      Cl223   2.560       .  S
C211        C798   1.428       .  S
C212        C803   1.435       .  S
N213        N214   1.322       .  A
N213       N1915   1.310       .  A
N213       Mn221   2.205       .  S
N214        C224   1.352       .  A
N215        N216   1.323       .  A
N215       N1913   1.313       .  A
N215       Mn222   2.199       .  S
N216       C1921   1.345       .  A
N217        N218   1.328       .  A
N217       N1911   1.313       .  A
N217       Mn221   2.205       .  S
N218        C225   1.354       .  A
N219        N220   1.319       .  A
N219       N1909   1.310       .  A
N219       Mn222   2.164       .  S
N220       C1920   1.349       .  A
Mn221     Cl1919   2.541   1_455  S
Mn222      Cl223   2.511       .  S
Cl223     Mn1917   2.541       .  S
C224       N1916   1.349       .  A
C224        C799   1.435       .  S
C225       N1912   1.345       .  A
C225        C807   1.454       .  S
N226        N227   1.321       .  A
N226        N232   1.318       .  A
N226       Mn255   2.210       .  S
N227        C234   1.350       .  A
N228        N230   1.323       .  A
N228        N229   1.320       .  A
N228       Mn244   2.216       .  S
N229        C235   1.349       .  A
N230        N231   1.321       .  A
N230      Mn1103   2.217   1_545  S
N231        C235   1.352       .  A
N232        N233   1.324       .  A
N232      Mn1092   2.221       .  S
N233        C234   1.354       .  A
C234        C816   1.445       .  S
C235        C800   1.435       .  S
N236        N242   1.314       .  A
N236        N237   1.315       .  A
N236      Mn1114   2.157   1_545  S
N237        C245   1.340       .  A
N238        N239   1.322       .  A
N238        N240   1.319       .  A
N238      Mn1092   2.223       .  S
N239        C246   1.354       .  A
N240        N241   1.316       .  A
N240       Mn266   2.182       .  S
N241        C246   1.345       .  A
N242        N243   1.326       .  A
N242       Mn244   2.231       .  S
N243        C245   1.359       .  A
Mn244      N1080   2.221   1_545  S
Mn244      N1086   2.223   1_545  S
Mn244     Cl1116   2.526   1_545  S
C245        C804   1.435       .  S
C246        C814   1.427       .  S
N247        N248   1.332       .  A
N247        N253   1.309       .  A
N247       Mn255   2.246       .  S
N248        C256   1.368       .  A
N249        N251   1.316       .  A
N249        N250   1.328       .  A
N249       Mn267   2.266       .  S
N250        C257   1.362       .  A
N251        N252   1.314       .  A
N251       Mn255   2.145       .  S
N252        C257   1.340       .  A
N253        N254   1.304       .  A
N253       Mn267   2.138       .  S
N254        C256   1.323       .  A
Mn255      N1078   2.217       .  S
Mn255      Cl268   2.560       .  S
C256        C795   1.430       .  S
C257        C805   1.439       .  S
N258        N259   1.320       .  A
N258        N264   1.310       .  A
N258       Mn266   2.200       .  S
N259        C269   1.351       .  A
N260        N261   1.322       .  A
N260        N262   1.313       .  A
N260       Mn267   2.196       .  S
N261        C270   1.344       .  A
N262        N263   1.327       .  A
N262       Mn266   2.204       .  S
N263        C270   1.354       .  A
N264        N265   1.319       .  A
N264       Mn267   2.165       .  S
N265        C269   1.349       .  A
Mn266      N1084   2.157       .  S
Mn266      Cl268   2.541       .  S
Mn267      Cl268   2.504       .  S
Cl268     Mn1092   2.526       .  S
C269        C802   1.431       .  S
C270       C1642   1.451       .  S
N271        N277   1.313   1_655  A
N271       N1968   1.328       .  A
N271       Mn300   2.214       .  S
N272       N1967   1.328       .  A
N272       C1975   1.355       .  A
N273        N275   1.311   1_455  A
N273        N274   1.321   1_455  A
N273       Mn289   2.177       .  S
N274       C1976   1.351       .  A
N275       N1972   1.322       .  A
N275       Mn300   2.211       .  S
N276       N1971   1.322       .  A
N276        C280   1.354       .  A
N277        N278   1.322       .  A
N277       Mn289   2.189       .  S
N278        C279   1.344   1_455  A
C279       N1968   1.355       .  A
C279        C808   1.454   1_655  S
C280       N1970   1.351       .  A
C280        C786   1.441       .  S
N281        N287   1.317       .  A
N281        N282   1.313       .  A
N281       Mn311   2.133       .  S
N282        C290   1.340       .  A
N283        N284   1.309       .  A
N283        N285   1.310       .  A
N283       Mn289   2.164       .  S
N284        C291   1.325       .  A
N285        N286   1.331       .  A
N285       Mn311   2.242       .  S
N286        C291   1.362       .  A
N287        N288   1.326       .  A
N287       Mn289   2.266       .  S
N288        C290   1.360       .  A
Mn289      Cl313   2.497       .  S
C290        C791   1.431       .  S
C291        C796   1.439       .  S
N292        N298   1.321   1_655  A
N292       N1989   1.318       .  A
N292       Mn300   2.196       .  S
N293       N1988   1.318       .  A
N293        C301   1.348       .  A
N294        N296   1.314   1_455  A
N294        N295   1.325       .  A
N294       Mn312   2.224       .  S
N295        C302   1.358   1_455  A
N296       N1993   1.314       .  A
N296       Mn300   2.152       .  S
N297       N1992   1.314       .  A
N297       C1998   1.339       .  A
N298        N299   1.320       .  A
N298       Mn312   2.221       .  S
N299       C1997   1.352   1_455  A
Mn300      Cl313   2.539   1_655  S
C301       N1995   1.352       .  A
C301        C783   1.428       .  S
C302       N1993   1.339       .  A
C302       C2486   1.430       .  S
N303        N304   1.322       .  A
N303        N309   1.323       .  A
N303       Mn311   2.225       .  S
N304        C314   1.353       .  A
N305        N306   1.325       .  A
N305        N307   1.317       .  A
N305       Mn312   2.219       .  S
N306        C315   1.354       .  A
N307        N308   1.323       .  A
N307       Mn311   2.211       .  S
N308        C315   1.351       .  A
N309        N310   1.320       .  A
N309       Mn312   2.220       .  S
N310        C314   1.350       .  A
Mn311      Cl313   2.555       .  S
Mn312      Cl313   2.520       .  S
C314        C787   1.439       .  S
C315        C781   1.450       .  S
N316        N317   1.327       .  A
N316        N322   1.314       .  A
N316       Mn345   2.212       .  S
N317        C324   1.354       .  A
N318        N320   1.311       .  A
N318        N319   1.320       .  A
N318       Mn334   2.175       .  S
N319        C325   1.350       .  A
N320        N321   1.322       .  A
N320       Mn345   2.210       .  S
N321        C325   1.353       .  A
N322        N323   1.322       .  A
N322       Mn334   2.190       .  S
N323        C324   1.344       .  A
C324        C793   1.451       .  S
C325        C788   1.439       .  S
N326        N332   1.317       .  A
N326        N327   1.313       .  A
N326       Mn356   2.135       .  S
N327        C335   1.340       .  A
N328        N329   1.309       .  A
N328        N330   1.311       .  A
N328       Mn334   2.165       .  S
N329        C336   1.325       .  A
N330        N331   1.331       .  A
N330       Mn356   2.240       .  S
N331        C336   1.361       .  A
N332        N333   1.326       .  A
N332       Mn334   2.264       .  S
N333        C335   1.359       .  A
Mn334      Cl358   2.485       .  S
C335        C789   1.430       .  S
C336        C797   1.440       .  S
N337        N338   1.317       .  A
N337        N343   1.320       .  A
N337       Mn345   2.193       .  S
N338        C346   1.348       .  A
N339        N341   1.314       .  A
N339        N340   1.326       .  A
N339       Mn357   2.226       .  S
N340        C347   1.358       .  A
N341        N342   1.314       .  A
N341       Mn345   2.151       .  S
N342        C347   1.339       .  A
N343        N344   1.320       .  A
N343       Mn357   2.220       .  S
N344        C346   1.352       .  A
Mn345      Cl358   2.536       .  S
C346        C780   1.427       .  S
C347       C1640   1.431   1_545  S
N348        N349   1.323       .  A
N348        N354   1.323       .  A
N348       Mn356   2.227       .  S
N349        C359   1.354       .  A
N350        N351   1.325       .  A
N350        N352   1.316       .  A
N350       Mn357   2.217       .  S
N351        C360   1.355       .  A
N352        N353   1.322       .  A
N352       Mn356   2.204       .  S
N353        C360   1.350       .  A
N354        N355   1.320       .  A
N354       Mn357   2.222       .  S
N355        C359   1.350       .  A
Mn356      Cl358   2.555       .  S
Mn357      Cl358   2.531       .  S
C359       C1633   1.441   1_545  S
C360        C777   1.448       .  S
N361        N362   1.313       .  A
N361        N367   1.318       .  A
N361       Mn390   2.170       .  S
N362        C369   1.343       .  A
N363        N365   1.315       .  A
N363        N364   1.327       .  A
N363       Mn379   2.235       .  S
N364        C370   1.360       .  A
N365        N366   1.315       .  A
N365       Mn390   2.161       .  S
N366        C370   1.341       .  A
N367        N368   1.321       .  A
N367       Mn379   2.217       .  S
N368        C369   1.354       .  A
C369        C836   1.420       .  S
C370        C773   1.437       .  S
N371        N372   1.321       .  A
N371       N2073   1.322       .  A
N371       Mn401   2.214       .  S
N372        C380   1.351       .  A
N373        N374   1.325       .  A
N373       N2071   1.319   1_455  A
N373       Mn379   2.227       .  S
N374       C2077   1.355   1_455  A
N375        N376   1.323       .  A
N375       N2069   1.319       .  A
N375       Mn401   2.218       .  S
N376        C381   1.351       .  A
N377        N378   1.319       .  A
N377       N2067   1.322       .  A
N377       Mn379   2.211       .  S
N378       C2076   1.348   1_455  A
Mn379      Cl403   2.526       .  S
C380       N2074   1.348       .  A
C380        C767   1.432       .  S
C381       N2070   1.355       .  A
C381        C833   1.451       .  S
N382        N383   1.326       .  A
N382        N388   1.313       .  A
N382       Mn390   2.195       .  S
N383        C391   1.353       .  A
N384        N386   1.310       .  A
N384       N1233   1.318       .  A
N384       Mn402   2.160       .  S
N385       N1232   1.318       .  A
N385        C392   1.348       .  A
N386        N387   1.320       .  A
N386       Mn390   2.200       .  S
N387       C1240   1.351       .  A
N388        N389   1.322       .  A
N388       Mn402   2.199       .  S
N389        C391   1.345       .  A
Mn390      Cl403   2.543       .  S
C391        C775   1.449       .  S
C392       N1235   1.351       .  A
C392        C770   1.430       .  S
N393        N394   1.314       .  A
N393       N2095   1.317       .  A
N393       Mn401   2.150       .  S
N394       C1252   1.341       .  A
N395        N396   1.302       .  A
N395       N2093   1.309       .  A
N395       Mn402   2.126       .  S
N396       C2101   1.323       .  A
N397        N398   1.333       .  A
N397       N2091   1.309       .  A
N397       Mn401   2.252       .  S
N398        C405   1.370       .  A
N399       N2089   1.317       .  A
N399       N1248   1.327       .  A
N399       Mn402   2.260       .  S
N400       N1247   1.327       .  A
N400       C2100   1.361   1_455  A
Mn401     Cl2099   2.562       .  S
Mn402      Cl403   2.505       .  S
Cl403     Mn2097   2.562       .  S
C404       N1242   1.341       .  A
C404       N2096   1.361       .  A
C404        C772   1.437       .  S
C405       N2092   1.323       .  A
C405        C766   1.430       .  S
N406        N407   1.316       .  A
N406        N412   1.318       .  A
N406       Mn435   2.190       .  S
N407        C414   1.348       .  A
N408        N410   1.314       .  A
N408        N409   1.327       .  A
N408       Mn424   2.233       .  S
N409        C415   1.360       .  A
N410        N411   1.315       .  A
N410       Mn435   2.158       .  S
N411        C415   1.340       .  A
N412        N413   1.320       .  A
N412       Mn424   2.207       .  S
N413        C414   1.351       .  A
C414        C825   1.424       .  S
C415        C771   1.437       .  S
N416        N422   1.322       .  A
N416        N417   1.321       .  A
N416       Mn446   2.216       .  S
N417        C425   1.351       .  A
N418        N419   1.324       .  A
N418        N420   1.317       .  A
N418       Mn424   2.217       .  S
N419        C426   1.354       .  A
N420        N421   1.321       .  A
N420       Mn446   2.209       .  S
N421        C426   1.350       .  A
N422        N423   1.318       .  A
N422       Mn424   2.205       .  S
N423        C425   1.347       .  A
Mn424      Cl448   2.525       .  S
C425        C769   1.430       .  S
C426        C828   1.444       .  S
N427        N428   1.328       .  A
N427        N433   1.315       .  A
N427       Mn435   2.210       .  S
N428        C436   1.354       .  A
N429        N431   1.310       .  A
N429        N430   1.318       .  A
N429       Mn447   2.161       .  S
N430        C437   1.348       .  A
N431        N432   1.321       .  A
N431       Mn435   2.202       .  S
N432        C437   1.352       .  A
N433        N434   1.322       .  A
N433       Mn447   2.196       .  S
N434        C436   1.344       .  A
Mn435      Cl448   2.541       .  S
C436        C763   1.453       .  S
C437        C768   1.432       .  S
N438        N439   1.314       .  A
N438        N444   1.316       .  A
N438       Mn446   2.152       .  S
N439        C449   1.341       .  A
N440        N441   1.304       .  A
N440        N442   1.310       .  A
N440       Mn447   2.132       .  S
N441        C450   1.324       .  A
N442        N443   1.331       .  A
N442       Mn446   2.243       .  S
N443        C450   1.368       .  A
N444        N445   1.327       .  A
N444       Mn447   2.258       .  S
N445        C449   1.361       .  A
Mn446      Cl448   2.559       .  S
Mn447      Cl448   2.505       .  S
C449        C774   1.437       .  S
C450        C761   1.429       .  S
N451        N457   1.311       .  A
N451       N2148   1.331       .  A
N451      Mn2176   2.242       .  S
N452       N2147   1.331   1_455  A
N452        C459   1.361   1_455  A
N453        N455   1.317       .  A
N453        N454   1.325       .  A
N453       Mn469   2.263   1_545  S
N454        C460   1.359       .  A
N455       N2152   1.312       .  A
N455      Mn3024   2.132   1_545  S
N456       N2151   1.312   1_455  A
N456       C2156   1.340       .  A
N457        N458   1.309       .  A
N457      Mn1317   2.166       .  S
N458       C2155   1.325       .  A
C459       N2154   1.325       .  A
C459       C1613   1.442       .  S
C460       N2152   1.340       .  A
C460       C2453   1.429       .  S
N461        N467   1.310       .  A
N461        N462   1.323       .  A
N461      Mn1339   2.211   1_545  S
N462        C470   1.354       .  A
N463        N464   1.322       .  A
N463        N465   1.313       .  A
N463      Mn1317   2.188       .  S
N464        C471   1.344       .  A
N465        N466   1.328       .  A
N465       Mn491   2.214       .  S
N466        C471   1.355       .  A
N467        N468   1.321       .  A
N467       Mn469   2.178   1_545  S
N468        C470   1.351       .  A
Mn469      N1305   2.166       .  S
Mn469      N1311   2.188       .  S
Mn469     Cl1341   2.498       .  S
C470        C756   1.443       .  S
C471        C764   1.453       .  S
N472        N478   1.316       .  A
N472       N3017   1.322       .  A
N472      Mn2176   2.205       .  S
N473       N3016   1.322       .  A
N473       C1329   1.349       .  A
N474        N475   1.320       .  A
N474       N2172   1.324       .  A
N474       Mn492   2.223       .  S
N475       C2178   1.350       .  A
N476        N477   1.324   1_655  A
N476       N2170   1.324       .  A
N476       Mn480   2.231       .  S
N477        C482   1.354       .  A
N478        N479   1.325       .  A
N478       Mn492   2.217       .  S
N479       C2177   1.355       .  A
Mn480      N2147   2.242       .  S
Mn480      N2999   2.132       .  S
Mn480      N2168   2.205   1_655  S
Mn480     Cl2189   2.552       .  S
C481       N1321   1.349       .  A
C481       N2175   1.355   1_455  A
C481        C751   1.447       .  S
C482       N2171   1.350   1_455  A
C482        C754   1.442       .  S
N483        N484   1.313       .  A
N483        N489   1.314       .  A
N483       Mn491   2.152       .  S
N484        C494   1.339       .  A
N485        N486   1.321       .  A
N485        N487   1.321       .  A
N485       Mn492   2.223       .  S
N486        C495   1.353       .  A
N487        N488   1.318       .  A
N487       Mn491   2.197       .  S
N488        C495   1.348       .  A
N489        N490   1.325       .  A
N489       Mn492   2.221       .  S
N490        C494   1.357       .  A
Mn491      N1309   2.211       .  S
Mn491      Cl493   2.537       .  S
Mn492      Cl493   2.522       .  S
Cl493     Mn1317   2.498       .  S
Cl493     Mn2176   2.552       .  S
C494        C759   1.428       .  S
C495        C749   1.430       .  S
N496        N497   1.330       .  A
N496        N502   1.312       .  A
N496       Mn525   2.237       .  S
N497        C504   1.360       .  A
N498        N500   1.317       .  A
N498        N499   1.325       .  A
N498       Mn514   2.257       .  S
N499        C505   1.358       .  A
N500        N501   1.313       .  A
N500       Mn525   2.137       .  S
N501        C505   1.340       .  A
N502        N503   1.309       .  A
N502       Mn514   2.164       .  S
N503        C504   1.326       .  A
C504        C762   1.439       .  S
C505        C760   1.428       .  S
N506        N512   1.311       .  A
N506        N507   1.323       .  A
N506       Mn536   2.212       .  S
N507        C515   1.354       .  A
N508        N509   1.321       .  A
N508        N510   1.314       .  A
N508       Mn514   2.188       .  S
N509        C516   1.344       .  A
N510        N511   1.327       .  A
N510       Mn536   2.209       .  S
N511        C516   1.354       .  A
N512        N513   1.321       .  A
N512       Mn514   2.178       .  S
N513        C515   1.350       .  A
Mn514      Cl538   2.489       .  S
C515        C753   1.442       .  S
C516        C776   1.449       .  S
N517        N518   1.322       .  A
N517        N523   1.315       .  A
N517       Mn525   2.203       .  S
N518        C526   1.349       .  A
N519        N521   1.323       .  A
N519        N520   1.321       .  A
N519       Mn537   2.225       .  S
N520        C527   1.351       .  A
N521        N522   1.323       .  A
N521       Mn525   2.227       .  S
N522        C527   1.354       .  A
N523        N524   1.325       .  A
N523       Mn537   2.215       .  S
N524        C526   1.355       .  A
Mn525      Cl538   2.553       .  S
C526        C747   1.446       .  S
C527        C755   1.443       .  S
N528        N529   1.313       .  A
N528        N534   1.314       .  A
N528       Mn536   2.153       .  S
N529        C539   1.339       .  A
N530        N531   1.321       .  A
N530        N532   1.320       .  A
N530       Mn537   2.221       .  S
N531        C540   1.353       .  A
N532        N533   1.317       .  A
N532       Mn536   2.191       .  S
N533        C540   1.347       .  A
N534        N535   1.325       .  A
N534       Mn537   2.222       .  S
N535        C539   1.358       .  A
Mn536      Cl538   2.535       .  S
Mn537      Cl538   2.534       .  S
C539        C758   1.429       .  S
C540        C745   1.428       .  S
N541        N542   1.323       .  A
N541        N547   1.317       .  A
N541       Mn570   2.211       .  S
N542        C549   1.350       .  A
N543        N545   1.324       .  A
N543        N544   1.317       .  A
N543       Mn559   2.206       .  S
N544        C550   1.346       .  A
N545        N546   1.322       .  A
N545       Mn570   2.228       .  S
N546        C550   1.354       .  A
N547        N548   1.324       .  A
N547       Mn559   2.209       .  S
N548        C549   1.353       .  A
C549        C748   1.446       .  S
C550        C737   1.433       .  S
N551        N552   1.315       .  A
N551       N2253   1.312   1_455  A
N551       Mn581   2.154       .  S
N552        C560   1.341       .  A
N553        N554   1.320       .  A
N553       N2251   1.321       .  A
N553       Mn559   2.220       .  S
N554       C2257   1.352       .  A
N555        N556   1.318       .  A
N555       N2249   1.321   1_455  A
N555       Mn581   2.196       .  S
N556        C561   1.348       .  A
N557        N558   1.324       .  A
N557       N2247   1.312       .  A
N557       Mn559   2.214       .  S
N558       C2256   1.356       .  A
Mn559      Cl583   2.529       .  S
C560       N2254   1.356   1_455  A
C560        C742   1.430       .  S
C561       N2250   1.352   1_455  A
C561        C746   1.428       .  S
N562        N563   1.335       .  A
N562        N568   1.311       .  A
N562       Mn570   2.257       .  S
N563        C571   1.368       .  A
N564        N566   1.319       .  A
N564        N565   1.324       .  A
N564       Mn582   2.244       .  S
N565        C572   1.358       .  A
N566        N567   1.314       .  A
N566       Mn570   2.159       .  S
N567        C572   1.342       .  A
N568        N569   1.306       .  A
N568       Mn582   2.131       .  S
N569        C571   1.326       .  A
Mn570      Cl583   2.563       .  S
C571        C733   1.442       .  S
C572        C739   1.429       .  S
N573        N574   1.322       .  A
N573       N2275   1.309   1_455  A
N573       Mn581   2.200       .  S
N574        C584   1.353       .  A
N575        N576   1.323       .  A
N575       N2273   1.318       .  A
N575       Mn582   2.190       .  S
N576       C2281   1.341       .  A
N577        N578   1.327       .  A
N577       N2271   1.318   1_455  A
N577       Mn581   2.211       .  S
N578        C585   1.352   1_455  A
N579        N580   1.318       .  A
N579       N2269   1.309       .  A
N579       Mn582   2.161       .  S
N580       C2280   1.347       .  A
Mn581     Cl2279   2.539   1_455  S
Mn582      Cl583   2.498       .  S
Cl583     Mn2277   2.539       .  S
C584       N2276   1.347   1_455  A
C584        C735   1.432       .  S
C585       N2272   1.341       .  A
C585        C744   1.453       .  S
N586        N587   1.318       .  A
N586        N592   1.321       .  A
N586       Mn615   2.198       .  S
N587        C594   1.348       .  A
N588        N590   1.313       .  A
N588        N589   1.325       .  A
N588       Mn604   2.217       .  S
N589        C595   1.356       .  A
N590        N591   1.315       .  A
N590       Mn615   2.153       .  S
N591        C595   1.340       .  A
N592        N593   1.319       .  A
N592       Mn604   2.220       .  S
N593        C594   1.352       .  A
C594        C779   1.428       .  S
C595       C1577   1.430   1_545  S
N596        N597   1.322       .  A
N596       N2298   1.324       .  A
N596       Mn626   2.226       .  S
N597        C605   1.353       .  A
N598        N599   1.324       .  A
N598       N2296   1.318   1_455  A
N598       Mn604   2.215       .  S
N599       C2302   1.354   1_455  A
N600        N601   1.322       .  A
N600       N2294   1.318       .  A
N600       Mn626   2.211       .  S
N601        C606   1.350       .  A
N602        N603   1.319       .  A
N602       N2292   1.324   1_455  A
N602       Mn604   2.212       .  S
N603       C2301   1.348   1_455  A
Mn604      Cl628   2.526       .  S
C605       N2299   1.348       .  A
C605       C1573   1.435   1_545  S
C606       N2295   1.354       .  A
C606        C778   1.448       .  S
N607        N608   1.328       .  A
N607        N613   1.317       .  A
N607       Mn615   2.213       .  S
N608        C616   1.353       .  A
N609        N611   1.309       .  A
N609        N610   1.319       .  A
N609       Mn627   2.166       .  S
N610        C617   1.348       .  A
N611        N612   1.322       .  A
N611       Mn615   2.200       .  S
N612        C617   1.353       .  A
N613        N614   1.324       .  A
N613       Mn627   2.193       .  S
N614        C616   1.342       .  A
Mn615      Cl628   2.542       .  S
C616        C724   1.456       .  S
C617        C728   1.436       .  S
N618        N619   1.314       .  A
N618       N2320   1.319       .  A
N618       Mn626   2.163       .  S
N619        C629   1.342       .  A
N620        N621   1.306       .  A
N620       N2318   1.310   1_455  A
N620       Mn627   2.129       .  S
N621       C2326   1.327   1_455  A
N622        N623   1.334       .  A
N622       N2316   1.310       .  A
N622       Mn626   2.247       .  S
N623        C630   1.367       .  A
N624        N625   1.325       .  A
N624       N2314   1.319   1_455  A
N624       Mn627   2.244       .  S
N625       C2325   1.358   1_455  A
Mn626     Cl2324   2.555       .  S
Mn627      Cl628   2.512       .  S
Cl628     Mn2322   2.555   1_455  S
C629       N2321   1.358       .  A
C629        C731   1.430       .  S
C630       N2317   1.327       .  A
C630        C743   1.437       .  S
N631        N632   1.323       .  A
N631        N637   1.317       .  A
N631       Mn660   2.213       .  S
N632        C639   1.351       .  A
N633        N635   1.323       .  A
N633        N634   1.318       .  A
N633       Mn649   2.206       .  S
N634        C640   1.346       .  A
N635        N636   1.322       .  A
N635       Mn660   2.226       .  S
N636        C640   1.354       .  A
N637        N638   1.324       .  A
N637       Mn649   2.210       .  S
N638        C639   1.352       .  A
C639        C752   1.447       .  S
C640        C736   1.432       .  S
N641        N647   1.312       .  A
N641        N642   1.315       .  A
N641       Mn671   2.152       .  S
N642        C650   1.341       .  A
N643        N644   1.320       .  A
N643        N645   1.321       .  A
N643       Mn649   2.220       .  S
N644        C651   1.352       .  A
N645        N646   1.319       .  A
N645       Mn671   2.200       .  S
N646        C651   1.349       .  A
N647        N648   1.325       .  A
N647       Mn649   2.214       .  S
N648        C650   1.356       .  A
Mn649      Cl673   2.529       .  S
C650        C740   1.430       .  S
C651        C750   1.430       .  S
N652        N653   1.335       .  A
N652        N658   1.310       .  A
N652       Mn660   2.256       .  S
N653        C661   1.368       .  A
N654        N656   1.319       .  A
N654        N655   1.324       .  A
N654       Mn672   2.243       .  S
N655        C662   1.357       .  A
N656        N657   1.314       .  A
N656      Mn1508   2.161   1_545  S
N657        C662   1.342       .  A
N658        N659   1.306       .  A
N658      Mn1520   2.130       .  S
N659        C661   1.326       .  A
Mn660      N1504   2.161       .  S
Mn660      Cl673   2.564       .  S
C661       C1571   1.442       .  S
C662        C741   1.429       .  S
N663        N664   1.323       .  A
N663        N669   1.309       .  A
N663      Mn1519   2.202   1_545  S
N664        C674   1.353       .  A
N665        N666   1.323       .  A
N665        N667   1.318       .  A
N665      Mn1520   2.190       .  S
N666        C675   1.341       .  A
N667        N668   1.327       .  A
N667       Mn671   2.213       .  S
N668        C675   1.352       .  A
N669        N670   1.318       .  A
N669       Mn672   2.160       .  S
N670        C674   1.346       .  A
Mn671      N1511   2.202       .  S
Mn671      Cl673   2.539       .  S
Mn672      N1506   2.130   1_545  S
Mn672      N1513   2.190   1_545  S
Mn672     Cl1521   2.499   1_545  S
Cl673     Mn1520   2.499       .  S
C674        C738   1.433       .  S
C675        C721   1.454       .  S
N676        N677   1.318       .  A
N676        N682   1.321       .  A
N676       Mn705   2.197       .  S
N677        C684   1.348       .  A
N678        N680   1.313       .  A
N678        N679   1.325       .  A
N678       Mn694   2.218       .  S
N679        C685   1.357       .  A
N680        N681   1.315       .  A
N680       Mn705   2.153       .  S
N681        C685   1.340       .  A
N682        N683   1.320       .  A
N682       Mn694   2.221       .  S
N683        C684   1.352       .  A
C684        C784   1.428       .  S
C685        C732   1.431       .  S
N686        N692   1.324       .  A
N686        N687   1.322       .  A
N686       Mn716   2.226       .  S
N687        C695   1.353       .  A
N688        N689   1.325       .  A
N688        N690   1.318       .  A
N688       Mn694   2.217       .  S
N689        C696   1.354       .  A
N690        N691   1.323       .  A
N690       Mn716   2.214       .  S
N691        C696   1.350       .  A
N692        N693   1.319       .  A
N692       Mn694   2.213       .  S
N693        C695   1.348       .  A
Mn694      Cl718   2.526       .  S
C695        C727   1.436       .  S
C696        C782   1.449       .  S
N697        N698   1.328       .  A
N697        N703   1.317       .  A
N697       Mn705   2.213       .  S
N698        C706   1.353       .  A
N699        N701   1.308       .  A
N699        N700   1.319       .  A
N699       Mn717   2.165       .  S
N700        C707   1.348       .  A
N701        N702   1.322       .  A
N701       Mn705   2.200       .  S
N702        C707   1.353       .  A
N703        N704   1.324       .  A
N703       Mn717   2.194       .  S
N704        C706   1.342       .  A
Mn705      Cl718   2.543       .  S
C706        C734   1.457       .  S
C707        C726   1.435       .  S
N708        N709   1.314       .  A
N708        N714   1.319       .  A
N708       Mn716   2.163       .  S
N709        C719   1.342       .  A
N710        N711   1.305       .  A
N710        N712   1.310       .  A
N710       Mn717   2.127       .  S
N711        C720   1.326       .  A
N712        N713   1.335       .  A
N712       Mn716   2.251       .  S
N713        C720   1.368       .  A
N714        N715   1.324       .  A
N714       Mn717   2.243       .  S
N715        C719   1.358       .  A
Mn716      Cl718   2.557       .  S
Mn717      Cl718   2.512       .  S
C719        C730   1.430       .  S
C720        C722   1.438       .  S
C721        C722   1.216       .  T
C723       C1509   1.442       .  S
C723        C724   1.217       .  T
C725       C1453   1.435       .  S
C725        C726   1.205       .  T
C727        C728   1.206       .  T
C729       C1443   1.430       .  S
C729        C730   1.203       .  T
C731        C732   1.203       .  T
C733        C734   1.217       .  T
C735        C736   1.204       .  T
C737        C738   1.204       .  T
C739        C740   1.203       .  T
C741        C742   1.203       .  T
C743       C2440   1.215       .  T
C744       C2439   1.215       .  T
C745        C746   1.201       .  T
C747        C748   1.212       .  T
C749        C750   1.202       .  T
C751        C752   1.212       .  T
C753        C754   1.210       .  T
C755        C756   1.210       .  T
C757       C2156   1.429       .  S
C757        C758   1.202       .  T
C759        C760   1.202       .  T
C761        C762   1.211       .  T
C763        C764   1.217       .  T
C765       C1307   1.442       .  S
C765       C2462   1.212       .  T
C766       C2461   1.212       .  T
C767        C768   1.203       .  T
C769        C770   1.202       .  T
C771        C772   1.207       .  T
C773        C774   1.207       .  T
C775        C776   1.214       .  T
C777        C778   1.213       .  T
C779        C780   1.201       .  T
C781        C782   1.214       .  T
C783        C784   1.201       .  T
C785       C1207   1.441       .  S
C785        C786   1.209       .  T
C787        C788   1.208       .  T
C789        C790   1.203       .  T
C790       C1998   1.430       .  S
C791        C792   1.204       .  T
C792       C1195   1.431       .  S
C793        C794   1.215   1_556  T
C794       C1118   1.451       .  S
C795        C796   1.212   1_554  T
C797        C798   1.211   1_556  T
C799        C800   1.205       .  T
C801        C802   1.203       .  T
C803        C804   1.206       .  T
C805        C806   1.208       .  T
C807        C808   1.217   1_554  T
C809        C810   1.200       .  T
C811        C812   1.217       .  T
C813        C814   1.201       .  T
C815        C816   1.211       .  T
C817        C818   1.217       .  T
C819        C820   1.208       .  T
C821        C822   1.200       .  T
C823        C824   1.202       .  T
C825        C826   1.199       .  T
C827        C828   1.210       .  T
C829        C830   1.220       .  T
C831       C1773   1.457       .  S
C831        C832   1.222       .  T
C833        C834   1.215       .  T
C835        C836   1.197       .  T
C837        C838   1.215       .  T
C839        C840   1.209       .  T
C841        C842   1.208       .  T
C843        C844   1.208       .  T
C845        C846   1.213       .  T
C847        C848   1.212   1_545  T
C848        C959   1.448       .  S
N849        N850   1.323       .  A
N849        N855   1.316       .  A
N849       Mn878   2.192       .  S
N850        C857   1.349       .  A
N851        N853   1.311       .  A
N851       Mn867   2.179       .  S
N852        C858   1.349       .  A
N853        N854   1.323       .  A
N853       Mn878   2.207       .  S
N855        N856   1.325       .  A
N855       Mn867   2.221       .  S
N856        C857   1.352       .  A
C857       C1685   1.451       .  S
C858       C1690   1.439       .  S
N859       Mn889   2.196       .  S
N860        C868   1.348       .  A
N861        N862   1.309       .  A
N861        N863   1.315       .  A
N861       Mn867   2.142       .  S
N862        C869   1.332       .  A
N863        N864   1.331       .  A
N863       Mn889   2.244       .  S
N864        C869   1.362       .  A
N865        N866   1.327   1_545  A
N866        C868   1.358       .  A
Mn867      Cl891   2.513       .  S
C868       C1694   1.447       .  S
C869       C1695   1.438       .  S
N870        N871   1.315       .  A
N870        N876   1.319       .  A
N870       Mn878   2.174       .  S
N871        C879   1.344       .  A
N872        N874   1.314       .  A
N872        N873   1.323       .  A
N872       Mn890   2.204       .  S
N873        C880   1.352       .  A
N874        N875   1.320       .  A
N874       Mn878   2.192       .  S
N875        C880   1.349       .  A
N876        N877   1.319       .  A
N876       Mn890   2.216       .  S
N877        C879   1.352       .  A
Mn878      Cl891   2.561       .  S
C879       C1683   1.420       .  S
C880       C1691   1.440       .  S
N881        N882   1.324       .  A
N881        N887   1.323       .  A
N881       Mn889   2.236       .  S
N882        C892   1.356       .  A
N883        N884   1.322       .  A
N883        N885   1.318       .  A
N883       Mn890   2.204       .  S
N884        C893   1.350       .  A
N885        N886   1.326       .  A
N885       Mn889   2.227       .  S
N886        C893   1.354       .  A
N887        N888   1.319       .  A
N887       Mn890   2.207       .  S
N888        C892   1.348       .  A
Mn889      Cl891   2.564       .  S
Mn890      Cl891   2.525       .  S
C892       C1687   1.440       .  S
C893       C1682   1.450       .  S
N894       N2591   1.324   1_455  A
N894        N900   1.313       .  A
N894       Mn923   2.217       .  S
N895       N2590   1.324       .  A
N895        C902   1.353       .  A
N896        N898   1.319       .  A
N896        N897   1.322       .  A
N896       Mn912   2.210       .  S
N897        C903   1.351       .  A
N898        N899   1.321       .  A
N898       Mn923   2.211       .  S
N899        C903   1.351       .  A
N900       N2597   1.323   1_455  A
N900       Mn912   2.197       .  S
N901       N2596   1.323       .  A
N901        C902   1.353       .  A
C902       C1693   1.448       .  S
C903       C1689   1.439       .  S
N904        N910   1.318       .  A
N904        N905   1.325       .  A
N904       Mn934   2.228       .  S
N905        C913   1.356       .  A
N906       N2603   1.317   1_455  A
N906        N908   1.317       .  A
N906       Mn912   2.191       .  S
N907       N2602   1.317       .  A
N907        C914   1.348       .  A
N908       N2605   1.320   1_455  A
N908       Mn934   2.196       .  S
N909       N2604   1.320       .  A
N909        C914   1.350       .  A
N910        N911   1.319       .  A
N910       Mn912   2.199       .  S
N911        C913   1.348       .  A
Mn912      Cl936   2.526       .  S
C913       C1675   1.443       .  S
C914       C1674   1.424       .  S
N915        N916   1.333       .  A
N915        N921   1.317       .  A
N915       Mn923   2.284       .  S
N916        C924   1.363       .  A
N917        N919   1.318       .  A
N917       N2614   1.333       .  A
N917       Mn935   2.281       .  S
N918       N2613   1.333       .  A
N918        C925   1.361       .  A
N919       N2616   1.313       .  A
N919       Mn923   2.146       .  S
N920       N2615   1.313       .  A
N920        C925   1.334       .  A
N921        N922   1.311       .  A
N921       Mn935   2.143       .  S
N922        C924   1.331       .  A
Mn923      Cl936   2.525       .  S
C924       C1677   1.452       .  S
C925       C3375   1.457       .  S
N926       N2623   1.322   1_455  A
N926        N932   1.321       .  A
N926       Mn934   2.229       .  S
N927       N2622   1.322       .  A
N927        C937   1.353       .  A
N928        N929   1.319       .  A
N928        N930   1.313       .  A
N928       Mn935   2.198       .  S
N929        C938   1.348       .  A
N930        N931   1.324       .  A
N930       Mn934   2.196       .  S
N931        C938   1.354       .  A
N932       N2629   1.321   1_455  A
N932       Mn935   2.205       .  S
N933       N2628   1.321       .  A
N933        C937   1.350       .  A
Mn934      Cl936   2.544       .  S
Mn935      Cl936   2.505       .  S
C937       C1688   1.441       .  S
C938       C1692   1.440       .  S
N939        N940   1.335       .  A
N939       N2641   1.316       .  A
N939       Mn968   2.251       .  S
N940        C947   1.360       .  A
N941       N2639   1.321       .  A
N941        N942   1.323       .  A
N941       Mn957   2.245       .  S
N942       C2644   1.355       .  A
N943       N2637   1.321   1_455  A
N943        N944   1.315       .  A
N943       Mn968   2.161       .  S
N944        C948   1.342       .  A
N945       N2635   1.316       .  A
N945       N2642   1.314       .  A
N945       Mn957   2.156       .  S
N946       N2641   1.314       .  A
N946        C947   1.332       .  A
C947       C1680   1.458       .  S
C948       N2638   1.355       .  A
C948       C1671   1.429       .  S
N949        N955   1.309       .  A
N949        N950   1.323       .  A
N949       Mn979   2.196       .  S
N950        C958   1.353       .  A
N951        N952   1.325       .  A
N951        N953   1.317       .  A
N951       Mn957   2.197       .  S
N952        C959   1.346       .  A
N953        N954   1.324       .  A
N953       Mn979   2.199       .  S
N954        C959   1.349       .  A
N955        N956   1.320       .  A
N955       Mn957   2.183       .  S
N956        C958   1.349       .  A
Mn957      Cl981   2.502       .  S
C958       C1667   1.440       .  S
N960        N961   1.323       .  A
N960        N966   1.316       .  A
N960       Mn968   2.211       .  S
N961        C969   1.351       .  A
N962        N963   1.321       .  A
N962      Mn1828   2.227   1_455  S
N963        C970   1.350       .  A
N964       Mn968   2.256       .  S
N965        C970   1.359       .  A
N966        N967   1.322       .  A
N966      Mn2676   2.197   1_455  S
N967        C969   1.351       .  A
Mn968     Cl2677   2.549   1_455  S
C969       C1663   1.444       .  S
C970       C1666   1.454       .  S
N971        N972   1.316       .  A
N971        N977   1.313       .  A
N972        C982   1.342       .  A
N973        N974   1.320       .  A
N973        N975   1.321       .  A
N973       Mn980   2.226       .  S
N974        C983   1.352       .  A
N975        N976   1.318       .  A
N975       Mn979   2.189       .  S
N976        C983   1.347       .  A
N977        N978   1.322       .  A
N978        C982   1.353       .  A
Mn979      Cl981   2.549       .  S
Mn980      N1810   2.227   1_565  S
Mn980      N2662   2.197       .  S
Mn980      Cl981   2.522       .  S
Cl981     Mn2664   2.549       .  S
C982       C1669   1.426       .  S
C983       C1661   1.428       .  S
N984        N985   1.334       .  A
N984        N990   1.319       .  A
N984      Mn1013   2.235       .  S
N985        C992   1.357       .  A
N986        N988   1.318       .  A
N986        N987   1.325       .  A
N986      Mn1002   2.248       .  S
N987        C993   1.358       .  A
N988        N989   1.313       .  A
N988      Mn1013   2.151       .  S
N989        C993   1.340       .  A
N990        N991   1.314       .  A
N990      Mn1002   2.161       .  S
N991        C992   1.333       .  A
C992       C1678   1.455       .  S
C993       C1672   1.428       .  S
N994       N1000   1.310       .  A
N994        N995   1.323       .  A
N994      Mn1024   2.195       .  S
N995       C1003   1.353       .  A
N996        N997   1.325       .  A
N996        N998   1.317       .  A
N996      Mn1002   2.210       .  S
N997       C1004   1.350       .  A
N998        N999   1.325       .  A
N998      Mn1024   2.208       .  S
N999       C1004   1.350       .  A
N1000      N1001   1.320       .  A
N1000     Mn1002   2.184       .  S
N1001      C1003   1.349       .  A
Mn1002    Cl1026   2.516       .  S
C1003      C1668   1.440       .  S
C1004      C1686   1.451       .  S
N1005      N1006   1.316       .  A
N1005      N1011   1.315       .  A
N1005     Mn1013   2.178       .  S
N1006      C1014   1.343       .  A
N1007      N1009   1.326       .  A
N1007      N1008   1.323       .  A
N1007     Mn1025   2.243       .  S
N1008      C1015   1.352       .  A
N1009      N1010   1.326       .  A
N1009     Mn1013   2.244       .  S
N1010      C1015   1.357       .  A
N1011      N1012   1.322       .  A
N1011     Mn1025   2.199       .  S
N1012      C1014   1.353       .  A
Mn1013    Cl1026   2.542       .  S
C1014      C1658   1.427       .  S
C1015      C1665   1.454       .  S
N1016      N1017   1.314       .  A
N1016      N1022   1.313       .  A
N1016     Mn1024   2.161       .  S
N1017      C1027   1.342       .  A
N1018      N1019   1.328       .  A
N1018      N1020   1.321       .  A
N1018     Mn1025   2.260       .  S
N1019      C1028   1.360       .  A
N1020      N1021   1.320       .  A
N1020     Mn1024   2.203       .  S
N1021      C1028   1.349       .  A
N1022      N1023   1.323       .  A
N1022     Mn1025   2.204       .  S
N1023      C1027   1.355       .  A
Mn1024    Cl1026   2.546       .  S
Mn1025    Cl1026   2.540       .  S
C1027      C1670   1.425       .  S
C1028      C1660   1.455       .  S
N1029      N1030   1.323       .  A
N1029      N1035   1.319       .  A
N1029     Mn1058   2.214       .  S
N1030      C1037   1.350       .  A
N1031      N1033   1.322       .  A
N1031      N1032   1.319       .  A
N1031     Mn1047   2.214       .  S
N1032      C1038   1.349       .  A
N1033      N1034   1.321       .  A
N1033     Mn1058   2.211       .  S
N1034      C1038   1.351       .  A
N1035      N1036   1.327       .  A
N1035     Mn1047   2.242       .  S
N1036      C1037   1.358       .  A
C1037      C1659   1.455       .  S
C1038      C1649   1.432       .  S
N1039      N2741   1.315       .  A
N1039      N1040   1.315       .  A
N1039     Mn1069   2.156       .  S
N1040      C1048   1.340       .  A
N1041      N1042   1.323       .  A
N1041      N2739   1.320       .  A
N1041     Mn1047   2.227       .  S
N1042      C2745   1.355       .  A
N1043      N2737   1.320       .  A
N1043      N1044   1.315       .  A
N1043     Mn1069   2.179       .  S
N1044      C1049   1.344       .  A
N1045      N2735   1.315       .  A
N1045      N1046   1.328       .  A
N1045     Mn1047   2.242       .  S
N1046      C2744   1.361       .  A
Mn1047    Cl1071   2.530       .  S
C1048      N2742   1.361       .  A
C1048      C1654   1.438       .  S
C1049      N2738   1.355       .  A
C1049      C1657   1.426       .  S
N1050      N1051   1.332       .  A
N1050      N1056   1.309       .  A
N1050     Mn1058   2.246       .  S
N1051      C1059   1.369       .  A
N1052      N1054   1.317       .  A
N1052      N1053   1.327       .  A
N1052     Mn1070   2.256       .  S
N1053      C1060   1.361       .  A
N1054      N1055   1.314       .  A
N1054     Mn1058   2.152       .  S
N1055      C1060   1.341       .  A
N1056      N1057   1.302       .  A
N1056     Mn1070   2.125       .  S
N1057      C1059   1.323       .  A
Mn1058    Cl1071   2.560       .  S
C1059      C1646   1.428       .  S
C1060      C1651   1.435       .  S
N1061      N1062   1.322       .  A
N1061      N2763   1.310       .  A
N1061     Mn1069   2.205       .  S
N1062      C1072   1.352       .  A
N1063      N1064   1.323       .  A
N1063      N2761   1.313       .  A
N1063     Mn1070   2.199       .  S
N1064      C2769   1.345       .  A
N1065      N2759   1.313       .  A
N1065      N1066   1.328       .  A
N1065     Mn1069   2.205       .  S
N1066      C1073   1.354       .  A
N1067      N2757   1.310       .  A
N1067      N1068   1.319       .  A
N1067     Mn1070   2.164       .  S
N1068      C2768   1.349       .  A
Mn1069    Cl2767   2.541   1_455  S
Mn1070    Cl1071   2.511       .  S
Cl1071    Mn2765   2.541       .  S
C1072      N2764   1.349       .  A
C1072      C1647   1.435       .  S
C1073      N2760   1.345       .  A
C1073      C1655   1.454       .  S
N1074      N1075   1.321       .  A
N1074      N1080   1.318       .  A
N1074     Mn1103   2.210       .  S
N1075      C1082   1.350       .  A
N1076      N1078   1.323       .  A
N1076      N1077   1.320       .  A
N1076     Mn1092   2.216       .  S
N1077      C1083   1.349       .  A
N1078      N1079   1.321       .  A
N1079      C1083   1.352       .  A
N1080      N1081   1.324       .  A
N1081      C1082   1.354       .  A
C1082      C1664   1.445       .  S
C1083      C1648   1.435       .  S
N1084      N1090   1.314       .  A
N1084      N1085   1.315       .  A
N1085      C1093   1.340       .  A
N1086      N1087   1.322       .  A
N1086      N1088   1.319       .  A
N1087      C1094   1.354       .  A
N1088      N1089   1.316       .  A
N1088     Mn1114   2.182       .  S
N1089      C1094   1.345       .  A
N1090      N1091   1.326       .  A
N1090     Mn1092   2.231       .  S
N1091      C1093   1.359       .  A
C1093      C1652   1.435       .  S
C1094      C1662   1.427       .  S
N1095      N1096   1.332       .  A
N1095      N1101   1.309       .  A
N1095     Mn1103   2.245       .  S
N1096      C1104   1.368       .  A
N1097      N1099   1.316       .  A
N1097      N1098   1.328       .  A
N1097     Mn1115   2.266       .  S
N1098      C1105   1.362       .  A
N1099      N1100   1.314       .  A
N1099     Mn1103   2.145       .  S
N1100      C1105   1.340       .  A
N1101      N1102   1.304       .  A
N1101     Mn1115   2.138       .  S
N1102      C1104   1.323       .  A
Mn1103    Cl1116   2.560       .  S
C1104      C1643   1.430       .  S
C1105      C1653   1.439       .  S
N1106      N1107   1.320       .  A
N1106      N1112   1.310       .  A
N1106     Mn1114   2.200       .  S
N1107      C1117   1.351       .  A
N1108      N1109   1.322       .  A
N1108      N1110   1.313       .  A
N1108     Mn1115   2.196       .  S
N1109      C1118   1.344   1_565  A
N1110      N1111   1.327   1_565  A
N1110     Mn1114   2.204       .  S
N1111      C1118   1.354       .  A
N1112      N1113   1.319       .  A
N1112     Mn1115   2.165       .  S
N1113      C1117   1.349       .  A
Mn1114    Cl1116   2.541       .  S
Mn1115    Cl1116   2.504       .  S
C1117      C1650   1.431       .  S
N1119      N2816   1.328       .  A
N1119      N1125   1.313   1_655  A
N1119     Mn1148   2.214       .  S
N1120      N2815   1.328       .  A
N1120      C2823   1.355       .  A
N1121      N1123   1.311   1_455  A
N1121      N1122   1.321   1_455  A
N1121     Mn1137   2.177       .  S
N1122      C2824   1.351       .  A
N1123      N2820   1.322       .  A
N1123     Mn1148   2.211       .  S
N1124      N2819   1.322       .  A
N1124      C1128   1.354       .  A
N1125      N1126   1.322       .  A
N1125     Mn1137   2.189       .  S
N1126      C1127   1.344   1_455  A
C1127      N2816   1.355       .  A
C1127      C1656   1.454   1_655  S
C1128      N2818   1.351       .  A
C1128      C1634   1.441       .  S
N1129      N1135   1.317       .  A
N1129      N1130   1.313       .  A
N1129     Mn1159   2.133       .  S
N1130      C1138   1.340       .  A
N1131      N1132   1.309       .  A
N1131      N1133   1.310       .  A
N1131     Mn1137   2.164       .  S
N1132      C1139   1.325       .  A
N1133      N1134   1.331       .  A
N1133     Mn1159   2.242       .  S
N1134      C1139   1.362       .  A
N1135      N1136   1.326       .  A
N1135     Mn1137   2.266       .  S
N1136      C1138   1.360       .  A
Mn1137    Cl1161   2.497       .  S
C1138      C1639   1.431       .  S
C1139      C1644   1.439       .  S
N1140      N2837   1.318       .  A
N1140      N1146   1.321   1_655  A
N1140     Mn1148   2.196       .  S
N1141      N2836   1.318       .  A
N1141      C1149   1.348       .  A
N1142      N1144   1.314   1_455  A
N1142      N1143   1.325       .  A
N1142     Mn1160   2.224       .  S
N1143      C1150   1.358   1_455  A
N1144      N2841   1.314       .  A
N1144     Mn1148   2.152       .  S
N1145      N2840   1.314       .  A
N1145      C2846   1.339       .  A
N1146      N1147   1.320       .  A
N1146     Mn1160   2.221       .  S
N1147      C2845   1.352   1_455  A
Mn1148    Cl1161   2.539   1_655  S
C1149      N2843   1.352       .  A
C1149      C1631   1.428       .  S
C1150      N2841   1.339       .  A
C1150      C3334   1.430       .  S
N1151      N1152   1.322       .  A
N1151      N1157   1.323       .  A
N1151     Mn1159   2.225       .  S
N1152      C1162   1.353       .  A
N1153      N1154   1.325       .  A
N1153      N1155   1.317       .  A
N1153     Mn1160   2.219       .  S
N1154      C1163   1.354       .  A
N1155      N1156   1.323       .  A
N1155     Mn1159   2.211       .  S
N1156      C1163   1.351       .  A
N1157      N1158   1.320       .  A
N1157     Mn1160   2.220       .  S
N1158      C1162   1.350       .  A
Mn1159    Cl1161   2.555       .  S
Mn1160    Cl1161   2.520       .  S
C1162      C1635   1.439       .  S
C1163      C1629   1.450       .  S
N1164      N1165   1.327       .  A
N1164      N1170   1.314       .  A
N1164     Mn1193   2.212       .  S
N1165      C1172   1.354       .  A
N1166      N1168   1.311       .  A
N1166      N1167   1.320       .  A
N1166     Mn1182   2.175       .  S
N1167      C1173   1.350       .  A
N1168      N1169   1.322       .  A
N1168     Mn1193   2.210       .  S
N1169      C1173   1.353       .  A
N1170      N1171   1.322       .  A
N1170     Mn1182   2.190       .  S
N1171      C1172   1.344       .  A
C1172      C1641   1.451       .  S
C1173      C1636   1.439       .  S
N1174      N1180   1.317       .  A
N1174      N1175   1.313       .  A
N1174     Mn1204   2.135       .  S
N1175      C1183   1.340       .  A
N1176      N1177   1.309       .  A
N1176      N1178   1.311       .  A
N1176     Mn1182   2.165       .  S
N1177      C1184   1.325       .  A
N1178      N1179   1.331       .  A
N1178     Mn1204   2.240       .  S
N1179      C1184   1.361       .  A
N1180      N1181   1.326       .  A
N1180     Mn1182   2.264       .  S
N1181      C1183   1.359       .  A
Mn1182    Cl1206   2.486       .  S
C1183      C1637   1.430       .  S
C1184      C1645   1.440       .  S
N1185      N1186   1.317       .  A
N1185      N1191   1.320       .  A
N1185     Mn1193   2.193       .  S
N1186      C1194   1.347       .  A
N1187      N1189   1.314       .  A
N1187      N1188   1.326       .  A
N1187     Mn1205   2.226       .  S
N1188      C1195   1.358       .  A
N1189      N1190   1.314       .  A
N1189     Mn1193   2.151       .  S
N1190      C1195   1.339       .  A
N1191      N1192   1.320       .  A
N1191     Mn1205   2.220       .  S
N1192      C1194   1.352       .  A
Mn1193    Cl1206   2.536       .  S
C1194      C1628   1.427       .  S
N1196      N1197   1.323       .  A
N1196      N1202   1.323       .  A
N1196     Mn1204   2.227       .  S
N1197      C1207   1.354       .  A
N1198      N1199   1.325       .  A
N1198      N1200   1.316       .  A
N1198     Mn1205   2.217       .  S
N1199      C1208   1.355       .  A
N1200      N1201   1.322       .  A
N1200     Mn1204   2.204       .  S
N1201      C1208   1.350       .  A
N1202      N1203   1.320       .  A
N1202     Mn1205   2.222       .  S
N1203      C1207   1.350       .  A
Mn1204    Cl1206   2.555       .  S
Mn1205    Cl1206   2.531       .  S
C1208      C1625   1.448       .  S
N1209      N1210   1.313       .  A
N1209      N1215   1.318       .  A
N1209     Mn1238   2.170       .  S
N1210      C1217   1.343       .  A
N1211      N1213   1.315       .  A
N1211      N1212   1.327       .  A
N1211     Mn1227   2.235       .  S
N1212      C1218   1.360       .  A
N1213      N1214   1.315       .  A
N1213     Mn1238   2.161       .  S
N1214      C1218   1.341       .  A
N1215      N1216   1.321       .  A
N1215     Mn1227   2.217       .  S
N1216      C1217   1.354       .  A
C1217      C1684   1.420       .  S
C1218      C1621   1.437       .  S
N1219      N2921   1.322       .  A
N1219      N1220   1.321       .  A
N1219     Mn1249   2.214       .  S
N1220      C1228   1.351       .  A
N1221      N1222   1.325       .  A
N1221      N2919   1.319   1_455  A
N1221     Mn1227   2.227       .  S
N1222      C2925   1.355   1_455  A
N1223      N2917   1.319       .  A
N1223      N1224   1.323       .  A
N1223     Mn1249   2.218       .  S
N1224      C1229   1.351       .  A
N1225      N2915   1.322       .  A
N1225      N1226   1.319       .  A
N1225     Mn1227   2.211       .  S
N1226      C2924   1.348   1_455  A
Mn1227    Cl1251   2.526       .  S
C1228      N2922   1.348       .  A
C1228      C1615   1.432       .  S
C1229      N2918   1.355       .  A
C1229      C1681   1.451       .  S
N1230      N1231   1.326       .  A
N1230      N1236   1.313       .  A
N1230     Mn1238   2.195       .  S
N1231      C1239   1.353       .  A
N1232      N1234   1.310       .  A
N1232     Mn1250   2.160       .  S
N1233      C1240   1.348       .  A
N1234      N1235   1.320       .  A
N1234     Mn1238   2.200       .  S
N1236      N1237   1.322       .  A
N1236     Mn1250   2.199       .  S
N1237      C1239   1.345       .  A
Mn1238    Cl1251   2.543       .  S
C1239      C1623   1.449       .  S
C1240      C1618   1.430   1_545  S
N1241      N1242   1.314       .  A
N1241      N2943   1.317       .  A
N1241     Mn1249   2.150       .  S
N1243      N1244   1.302       .  A
N1243      N2941   1.309       .  A
N1243     Mn1250   2.126       .  S
N1244      C2949   1.323       .  A
N1245      N2939   1.309       .  A
N1245      N1246   1.333       .  A
N1245     Mn1249   2.252       .  S
N1246      C1253   1.370       .  A
N1247      N2937   1.317       .  A
N1247     Mn1250   2.260       .  S
N1248      C2948   1.361   1_455  A
Mn1249    Cl2947   2.562       .  S
Mn1250    Cl1251   2.505       .  S
Cl1251    Mn2945   2.562       .  S
C1252      N2944   1.361       .  A
C1252      C1620   1.437   1_545  S
C1253      N2940   1.323       .  A
C1253      C1614   1.430       .  S
N1254      N1255   1.316       .  A
N1254      N1260   1.318       .  A
N1254     Mn1283   2.190       .  S
N1255      C1262   1.348       .  A
N1256      N1258   1.314       .  A
N1256      N1257   1.327       .  A
N1256     Mn1272   2.233       .  S
N1257      C1263   1.360       .  A
N1258      N1259   1.315       .  A
N1258     Mn1283   2.158       .  S
N1259      C1263   1.340       .  A
N1260      N1261   1.320       .  A
N1260     Mn1272   2.207       .  S
N1261      C1262   1.351       .  A
C1262      C1673   1.424       .  S
C1263      C1619   1.437       .  S
N1264      N1270   1.322       .  A
N1264      N1265   1.321       .  A
N1264     Mn1294   2.216       .  S
N1265      C1273   1.351       .  A
N1266      N1267   1.324       .  A
N1266      N1268   1.317       .  A
N1266     Mn1272   2.217       .  S
N1267      C1274   1.354       .  A
N1268      N1269   1.321       .  A
N1268     Mn1294   2.209       .  S
N1269      C1274   1.350       .  A
N1270      N1271   1.318       .  A
N1270     Mn1272   2.205       .  S
N1271      C1273   1.347       .  A
Mn1272    Cl1296   2.525       .  S
C1273      C1617   1.430       .  S
C1274      C1676   1.444       .  S
N1275      N1276   1.328       .  A
N1275      N1281   1.315       .  A
N1275     Mn1283   2.210       .  S
N1276      C1284   1.354       .  A
N1277      N1279   1.310       .  A
N1277      N1278   1.318       .  A
N1277     Mn1295   2.161       .  S
N1278      C1285   1.348       .  A
N1279      N1280   1.321       .  A
N1279     Mn1283   2.202       .  S
N1280      C1285   1.352       .  A
N1281      N1282   1.322       .  A
N1281     Mn1295   2.196       .  S
N1282      C1284   1.344       .  A
Mn1283    Cl1296   2.541       .  S
C1284      C1611   1.453       .  S
C1285      C1616   1.432       .  S
N1286      N1287   1.314       .  A
N1286      N1292   1.316       .  A
N1286     Mn1294   2.152       .  S
N1287      C1297   1.341       .  A
N1288      N1289   1.304       .  A
N1288      N1290   1.310       .  A
N1288     Mn1295   2.132       .  S
N1289      C1298   1.324       .  A
N1290      N1291   1.331       .  A
N1290     Mn1294   2.243       .  S
N1291      C1298   1.368       .  A
N1292      N1293   1.327       .  A
N1292     Mn1295   2.258       .  S
N1293      C1297   1.361       .  A
Mn1294    Cl1296   2.559       .  S
Mn1295    Cl1296   2.505       .  S
C1297      C1622   1.437       .  S
C1298      C1609   1.429       .  S
N1299      N2996   1.331       .  A
N1299      N1305   1.311       .  A
N1299     Mn3024   2.242       .  S
N1300      N2995   1.331   1_455  A
N1300      C1307   1.361   1_465  A
N1301      N1303   1.317       .  A
N1301      N1302   1.325       .  A
N1301     Mn1317   2.263       .  S
N1302      C1308   1.359       .  A
N1303      N3000   1.312       .  A
N1303     Mn2176   2.132       .  S
N1304      N2999   1.312   1_455  A
N1304      C3004   1.340       .  A
N1305      N1306   1.309       .  A
N1306      C3003   1.325   1_565  A
C1307      N3002   1.325   1_545  A
C1308      N3000   1.340       .  A
C1308      C3301   1.429       .  S
N1309      N1315   1.310       .  A
N1309      N1310   1.323       .  A
N1310      C1318   1.354       .  A
N1311      N1312   1.322       .  A
N1311      N1313   1.313       .  A
N1312      C1319   1.344       .  A
N1313      N1314   1.328       .  A
N1313     Mn1339   2.214       .  S
N1314      C1319   1.355       .  A
N1315      N1316   1.321       .  A
N1315     Mn1317   2.178       .  S
N1316      C1318   1.351       .  A
C1318      C1604   1.443       .  S
C1319      C1612   1.453       .  S
N1320      N2169   1.322       .  A
N1320      N1326   1.316       .  A
N1320     Mn3024   2.205       .  S
N1321      N2168   1.322       .  A
N1322      N3020   1.324       .  A
N1322      N1323   1.320       .  A
N1322     Mn1340   2.223       .  S
N1323      C3026   1.350       .  A
N1324      N3018   1.324       .  A
N1324      N1325   1.324   1_655  A
N1324     Mn1328   2.231       .  S
N1325      C1330   1.354       .  A
N1326      N1327   1.325       .  A
N1326     Mn1340   2.217       .  S
N1327      C3025   1.355       .  A
Mn1328     N2995   2.242       .  S
Mn1328     N2151   2.132   1_565  S
Mn1328     N3016   2.205   1_655  S
Mn1328    Cl3037   2.552       .  S
C1329      N3023   1.355   1_455  A
C1329      C1599   1.447       .  S
C1330      N3019   1.350   1_455  A
C1330      C1602   1.442       .  S
N1331      N1332   1.313       .  A
N1331      N1337   1.314       .  A
N1331     Mn1339   2.152       .  S
N1332      C1342   1.339       .  A
N1333      N1334   1.321       .  A
N1333      N1335   1.321       .  A
N1333     Mn1340   2.223       .  S
N1334      C1343   1.353       .  A
N1335      N1336   1.318       .  A
N1335     Mn1339   2.197       .  S
N1336      C1343   1.348       .  A
N1337      N1338   1.325       .  A
N1337     Mn1340   2.221       .  S
N1338      C1342   1.357       .  A
Mn1339    Cl1341   2.537       .  S
Mn1340    Cl1341   2.522       .  S
Cl1341    Mn3024   2.552       .  S
C1342      C1607   1.428       .  S
C1343      C1597   1.430       .  S
N1344      N1345   1.330       .  A
N1344      N1350   1.312       .  A
N1344     Mn1373   2.237       .  S
N1345      C1352   1.360       .  A
N1346      N1348   1.317       .  A
N1346      N1347   1.325       .  A
N1346     Mn1362   2.257       .  S
N1347      C1353   1.358       .  A
N1348      N1349   1.313       .  A
N1348     Mn1373   2.137       .  S
N1349      C1353   1.340       .  A
N1350      N1351   1.309       .  A
N1350     Mn1362   2.164       .  S
N1351      C1352   1.326       .  A
C1352      C1610   1.439       .  S
C1353      C1608   1.428       .  S
N1354      N1360   1.311       .  A
N1354      N1355   1.323       .  A
N1354     Mn1384   2.212       .  S
N1355      C1363   1.354       .  A
N1356      N1357   1.321       .  A
N1356      N1358   1.314       .  A
N1356     Mn1362   2.188       .  S
N1357      C1364   1.344       .  A
N1358      N1359   1.327       .  A
N1358     Mn1384   2.210       .  S
N1359      C1364   1.354       .  A
N1360      N1361   1.321       .  A
N1360     Mn1362   2.178       .  S
N1361      C1363   1.350       .  A
Mn1362    Cl1386   2.489       .  S
C1363      C1601   1.442       .  S
C1364      C1624   1.449       .  S
N1365      N1366   1.322       .  A
N1365      N1371   1.315       .  A
N1365     Mn1373   2.203       .  S
N1366      C1374   1.349       .  A
N1367      N1369   1.323       .  A
N1367      N1368   1.321       .  A
N1367     Mn1385   2.225       .  S
N1368      C1375   1.351       .  A
N1369      N1370   1.323       .  A
N1369     Mn1373   2.227       .  S
N1370      C1375   1.354       .  A
N1371      N1372   1.325       .  A
N1371     Mn1385   2.215       .  S
N1372      C1374   1.355       .  A
Mn1373    Cl1386   2.553       .  S
C1374      C1595   1.446       .  S
C1375      C1603   1.443       .  S
N1376      N1377   1.313       .  A
N1376      N1382   1.314       .  A
N1376     Mn1384   2.153       .  S
N1377      C1387   1.339       .  A
N1378      N1379   1.321       .  A
N1378      N1380   1.320       .  A
N1378     Mn1385   2.221       .  S
N1379      C1388   1.353       .  A
N1380      N1381   1.317       .  A
N1380     Mn1384   2.191       .  S
N1381      C1388   1.347       .  A
N1382      N1383   1.325       .  A
N1382     Mn1385   2.222       .  S
N1383      C1387   1.358       .  A
Mn1384    Cl1386   2.535       .  S
Mn1385    Cl1386   2.534       .  S
C1387      C1606   1.429       .  S
C1388      C1593   1.428       .  S
N1389      N1390   1.323       .  A
N1389      N1395   1.317       .  A
N1389     Mn1418   2.211       .  S
N1390      C1397   1.350       .  A
N1391      N1393   1.324       .  A
N1391      N1392   1.317       .  A
N1391     Mn1407   2.206       .  S
N1392      C1398   1.346       .  A
N1393      N1394   1.322       .  A
N1393     Mn1418   2.228       .  S
N1394      C1398   1.354       .  A
N1395      N1396   1.324       .  A
N1395     Mn1407   2.209       .  S
N1396      C1397   1.353       .  A
C1397      C1596   1.446       .  S
C1398      C1585   1.433       .  S
N1399      N3101   1.312   1_455  A
N1399      N1400   1.315       .  A
N1399     Mn1429   2.154       .  S
N1400      C1408   1.341       .  A
N1401      N1402   1.320       .  A
N1401      N3099   1.321       .  A
N1401     Mn1407   2.220       .  S
N1402      C3105   1.352       .  A
N1403      N3097   1.321   1_455  A
N1403      N1404   1.318       .  A
N1403     Mn1429   2.197       .  S
N1404      C1409   1.348       .  A
N1405      N3095   1.312       .  A
N1405      N1406   1.324       .  A
N1405     Mn1407   2.214       .  S
N1406      C3104   1.356       .  A
Mn1407    Cl1431   2.529       .  S
C1408      N3102   1.356   1_455  A
C1408      C1590   1.430       .  S
C1409      N3098   1.352   1_455  A
C1409      C1594   1.428       .  S
N1410      N1411   1.335       .  A
N1410      N1416   1.311       .  A
N1410     Mn1418   2.257       .  S
N1411      C1419   1.368       .  A
N1412      N1414   1.319       .  A
N1412      N1413   1.324       .  A
N1412     Mn1430   2.244       .  S
N1413      C1420   1.358       .  A
N1414      N1415   1.314       .  A
N1414     Mn1418   2.159       .  S
N1415      C1420   1.342       .  A
N1416      N1417   1.306       .  A
N1416     Mn1430   2.131       .  S
N1417      C1419   1.326       .  A
Mn1418    Cl1431   2.563       .  S
C1419      C1581   1.442       .  S
C1420      C1587   1.429       .  S
N1421      N1422   1.322       .  A
N1421      N3123   1.309   1_455  A
N1421     Mn1429   2.200       .  S
N1422      C1432   1.353       .  A
N1423      N1424   1.323       .  A
N1423      N3121   1.318       .  A
N1423     Mn1430   2.190       .  S
N1424      C3129   1.341       .  A
N1425      N3119   1.318   1_455  A
N1425      N1426   1.327       .  A
N1425     Mn1429   2.211       .  S
N1426      C1433   1.352   1_455  A
N1427      N3117   1.309       .  A
N1427      N1428   1.318       .  A
N1427     Mn1430   2.161       .  S
N1428      C3128   1.347       .  A
Mn1429    Cl3127   2.539   1_455  S
Mn1430    Cl1431   2.498       .  S
Cl1431    Mn3125   2.539       .  S
C1432      N3124   1.347   1_455  A
C1432      C1583   1.432       .  S
C1433      N3120   1.341       .  A
C1433      C1592   1.453       .  S
N1434      N1435   1.318       .  A
N1434      N1440   1.321       .  A
N1434     Mn1463   2.197       .  S
N1435      C1442   1.348       .  A
N1436      N1438   1.313       .  A
N1436      N1437   1.325       .  A
N1436     Mn1452   2.217       .  S
N1437      C1443   1.356       .  A
N1438      N1439   1.315       .  A
N1438     Mn1463   2.153       .  S
N1439      C1443   1.340       .  A
N1440      N1441   1.319       .  A
N1440     Mn1452   2.220       .  S
N1441      C1442   1.352       .  A
C1442      C1627   1.428       .  S
N1444      N3146   1.323       .  A
N1444      N1445   1.322       .  A
N1444     Mn1474   2.225       .  S
N1445      C1453   1.353       .  A
N1446      N1447   1.324       .  A
N1446      N3144   1.317   1_455  A
N1446     Mn1452   2.214       .  S
N1447      C3150   1.354   1_455  A
N1448      N3142   1.317       .  A
N1448      N1449   1.322       .  A
N1448     Mn1474   2.209       .  S
N1449      C1454   1.350       .  A
N1450      N3140   1.323   1_455  A
N1450      N1451   1.319       .  A
N1450     Mn1452   2.211       .  S
N1451      C3149   1.348   1_455  A
Mn1452    Cl1476   2.534       .  S
C1453      N3147   1.348       .  A
C1454      N3143   1.354       .  A
C1454      C1626   1.448       .  S
N1455      N1456   1.328       .  A
N1455      N1461   1.318       .  A
N1455     Mn1463   2.215       .  S
N1456      C1464   1.353       .  A
N1457      N1459   1.309       .  A
N1457      N1458   1.319       .  A
N1457     Mn1475   2.168       .  S
N1458      C1465   1.348       .  A
N1459      N1460   1.322       .  A
N1459     Mn1463   2.201       .  S
N1460      C1465   1.353       .  A
N1461      N1462   1.324       .  A
N1461     Mn1475   2.193       .  S
N1462      C1464   1.342       .  A
Mn1463    Cl1476   2.537       .  S
C1464      C1572   1.456       .  S
C1465      C1576   1.436       .  S
N1466      N1467   1.314       .  A
N1466      N3168   1.319       .  A
N1466     Mn1474   2.163       .  S
N1467      C1477   1.342       .  A
N1468      N1469   1.306       .  A
N1468      N3166   1.311   1_455  A
N1468     Mn1475   2.130       .  S
N1469      C3174   1.327   1_455  A
N1470      N3164   1.311       .  A
N1470      N1471   1.334       .  A
N1470     Mn1474   2.248       .  S
N1471      C1478   1.367       .  A
N1472      N3162   1.319   1_455  A
N1472      N1473   1.325       .  A
N1472     Mn1475   2.244       .  S
N1473      C3173   1.358   1_455  A
Mn1474    Cl3172   2.560       .  S
Mn1475    Cl1476   2.504       .  S
Cl1476    Mn3170   2.560   1_455  S
C1477      N3169   1.358       .  A
C1477      C1579   1.430       .  S
C1478      N3165   1.327       .  A
C1478      C1591   1.438       .  S
N1479      N1480   1.323       .  A
N1479      N1485   1.317       .  A
N1479     Mn1508   2.213       .  S
N1480      C1487   1.351       .  A
N1481      N1483   1.323       .  A
N1481      N1482   1.318       .  A
N1481     Mn1497   2.206       .  S
N1482      C1488   1.346       .  A
N1483      N1484   1.322       .  A
N1483     Mn1508   2.226       .  S
N1484      C1488   1.354       .  A
N1485      N1486   1.324       .  A
N1485     Mn1497   2.209       .  S
N1486      C1487   1.353       .  A
C1487      C1600   1.447       .  S
C1488      C1584   1.432       .  S
N1489      N1495   1.312       .  A
N1489      N1490   1.315       .  A
N1489     Mn1519   2.153       .  S
N1490      C1498   1.341       .  A
N1491      N1492   1.320       .  A
N1491      N1493   1.321       .  A
N1491     Mn1497   2.220       .  S
N1492      C1499   1.352       .  A
N1493      N1494   1.319       .  A
N1493     Mn1519   2.200       .  S
N1494      C1499   1.349       .  A
N1495      N1496   1.325       .  A
N1495     Mn1497   2.214       .  S
N1496      C1498   1.356       .  A
Mn1497    Cl1521   2.529       .  S
C1498      C1588   1.430       .  S
C1499      C1598   1.430       .  S
N1500      N1501   1.335       .  A
N1500      N1506   1.310       .  A
N1500     Mn1508   2.256       .  S
N1501      C1509   1.368   1_565  A
N1502      N1504   1.319       .  A
N1502      N1503   1.324       .  A
N1502     Mn1520   2.243       .  S
N1503      C1510   1.357       .  A
N1504      N1505   1.314       .  A
N1505      C1510   1.342       .  A
N1506      N1507   1.306   1_565  A
N1507      C1509   1.326       .  A
Mn1508    Cl1521   2.564       .  S
C1510      C1589   1.429       .  S
N1511      N1512   1.323       .  A
N1511      N1517   1.309       .  A
N1512      C1522   1.353       .  A
N1513      N1514   1.323       .  A
N1513      N1515   1.318       .  A
N1514      C1523   1.341       .  A
N1515      N1516   1.327       .  A
N1515     Mn1519   2.213       .  S
N1516      C1523   1.352       .  A
N1517      N1518   1.318       .  A
N1517     Mn1520   2.160       .  S
N1518      C1522   1.346       .  A
Mn1519    Cl1521   2.539       .  S
C1522      C1586   1.433       .  S
C1523      C1569   1.454       .  S
N1524      N1525   1.318       .  A
N1524      N1530   1.321       .  A
N1524     Mn1553   2.197       .  S
N1525      C1532   1.348       .  A
N1526      N1528   1.313       .  A
N1526      N1527   1.325       .  A
N1526     Mn1542   2.218       .  S
N1527      C1533   1.357       .  A
N1528      N1529   1.315       .  A
N1528     Mn1553   2.153       .  S
N1529      C1533   1.340       .  A
N1530      N1531   1.320       .  A
N1530     Mn1542   2.221       .  S
N1531      C1532   1.352       .  A
C1532      C1632   1.428       .  S
C1533      C1580   1.431       .  S
N1534      N1540   1.324       .  A
N1534      N1535   1.322       .  A
N1534     Mn1564   2.226       .  S
N1535      C1543   1.353       .  A
N1536      N1537   1.325       .  A
N1536      N1538   1.318       .  A
N1536     Mn1542   2.217       .  S
N1537      C1544   1.354       .  A
N1538      N1539   1.323       .  A
N1538     Mn1564   2.214       .  S
N1539      C1544   1.350       .  A
N1540      N1541   1.319       .  A
N1540     Mn1542   2.213       .  S
N1541      C1543   1.348       .  A
Mn1542    Cl1566   2.526       .  S
C1543      C1575   1.436       .  S
C1544      C1630   1.449       .  S
N1545      N1546   1.328       .  A
N1545      N1551   1.317       .  A
N1545     Mn1553   2.213       .  S
N1546      C1554   1.353       .  A
N1547      N1549   1.308       .  A
N1547      N1548   1.319       .  A
N1547     Mn1565   2.165       .  S
N1548      C1555   1.348       .  A
N1549      N1550   1.322       .  A
N1549     Mn1553   2.200       .  S
N1550      C1555   1.353       .  A
N1551      N1552   1.324       .  A
N1551     Mn1565   2.194       .  S
N1552      C1554   1.342       .  A
Mn1553    Cl1566   2.543       .  S
C1554      C1582   1.457       .  S
C1555      C1574   1.435       .  S
N1556      N1557   1.314       .  A
N1556      N1562   1.319       .  A
N1556     Mn1564   2.163       .  S
N1557      C1567   1.342       .  A
N1558      N1559   1.305       .  A
N1558      N1560   1.310       .  A
N1558     Mn1565   2.127       .  S
N1559      C1568   1.326       .  A
N1560      N1561   1.335       .  A
N1560     Mn1564   2.251       .  S
N1561      C1568   1.368       .  A
N1562      N1563   1.324       .  A
N1562     Mn1565   2.243       .  S
N1563      C1567   1.358       .  A
Mn1564    Cl1566   2.557       .  S
Mn1565    Cl1566   2.512       .  S
C1567      C1578   1.430       .  S
C1568      C1570   1.438       .  S
C1569      C1570   1.216       .  T
C1571      C1572   1.217       .  T
C1573      C1574   1.205       .  T
C1575      C1576   1.206       .  T
C1577      C1578   1.203       .  T
C1579      C1580   1.203       .  T
C1581      C1582   1.217       .  T
C1583      C1584   1.204       .  T
C1585      C1586   1.204       .  T
C1587      C1588   1.203       .  T
C1589      C1590   1.203       .  T
C1591      C3288   1.215       .  T
C1592      C3287   1.215       .  T
C1593      C1594   1.201       .  T
C1595      C1596   1.212       .  T
C1597      C1598   1.202       .  T
C1599      C1600   1.212       .  T
C1601      C1602   1.210       .  T
C1603      C1604   1.210       .  T
C1605      C3004   1.429       .  S
C1605      C1606   1.202       .  T
C1607      C1608   1.202       .  T
C1609      C1610   1.211       .  T
C1611      C1612   1.217       .  T
C1613      C3310   1.212       .  T
C1614      C3309   1.212       .  T
C1615      C1616   1.203       .  T
C1617      C1618   1.202       .  T
C1619      C1620   1.207       .  T
C1621      C1622   1.207       .  T
C1623      C1624   1.214       .  T
C1625      C1626   1.213       .  T
C1627      C1628   1.201       .  T
C1629      C1630   1.214       .  T
C1631      C1632   1.201       .  T
C1633      C1634   1.209       .  T
C1635      C1636   1.208       .  T
C1637      C1638   1.203       .  T
C1638      C2846   1.430       .  S
C1639      C1640   1.204       .  T
C1641      C1642   1.215   1_556  T
C1643      C1644   1.212   1_554  T
C1645      C1646   1.211   1_556  T
C1647      C1648   1.205       .  T
C1649      C1650   1.203       .  T
C1651      C1652   1.206       .  T
C1653      C1654   1.208       .  T
C1655      C1656   1.217   1_554  T
C1657      C1658   1.200       .  T
C1659      C1660   1.217       .  T
C1661      C1662   1.201       .  T
C1663      C1664   1.211       .  T
C1665      C1666   1.217       .  T
C1667      C1668   1.208       .  T
C1669      C1670   1.200       .  T
C1671      C1672   1.202       .  T
C1673      C1674   1.199       .  T
C1675      C1676   1.210       .  T
C1677      C1678   1.220       .  T
C1679      C2621   1.457       .  S
C1679      C1680   1.222       .  T
C1681      C1682   1.215       .  T
C1683      C1684   1.197       .  T
C1685      C1686   1.215       .  T
C1687      C1688   1.209       .  T
C1689      C1690   1.208       .  T
C1691      C1692   1.208       .  T
C1693      C1694   1.213       .  T
C1695      C1696   1.212       .  T
N1697      N1698   1.323       .  A
N1697      N1703   1.316       .  A
N1697     Mn1726   2.192       .  S
N1698      C1705   1.349       .  A
N1699      N1701   1.311       .  A
N1699      N2548   1.320   1_545  A
N1699     Mn1715   2.179       .  S
N1700      N2547   1.320       .  A
N1700      C1706   1.349       .  A
N1701      N1702   1.323       .  A
N1701     Mn1726   2.207       .  S
N1702      C2554   1.354   1_545  A
N1703      N1704   1.325       .  A
N1703     Mn1715   2.221       .  S
N1704      C1705   1.352       .  A
C1705      C2533   1.451       .  S
C1706      N2550   1.354       .  A
C1706      C2538   1.439       .  S
N1707      N2561   1.321       .  A
N1707      N2556   1.319   1_545  A
N1707     Mn1737   2.196       .  S
N1708      N2555   1.319       .  A
N1708      C1716   1.348       .  A
N1709      N1710   1.309       .  A
N1709      N1711   1.315       .  A
N1709     Mn1715   2.142       .  S
N1710      C1717   1.332       .  A
N1711      N1712   1.331       .  A
N1711     Mn1737   2.244       .  S
N1712      C1717   1.362       .  A
N1713      N2555   1.321       .  A
N1713      N1714   1.327       .  A
N1713     Mn2563   2.252       .  S
N1714      C1716   1.358       .  A
Mn1715     N2561   2.252       .  S
Mn1715    Cl1739   2.513       .  S
C1716      C2542   1.447       .  S
C1717      C2543   1.438       .  S
N1718      N1719   1.315       .  A
N1718      N1724   1.319       .  A
N1718     Mn1726   2.174       .  S
N1719      C1727   1.344       .  A
N1720      N1722   1.314       .  A
N1720      N1721   1.323       .  A
N1720     Mn1738   2.204       .  S
N1721      C1728   1.352       .  A
N1722      N1723   1.320       .  A
N1722     Mn1726   2.192       .  S
N1723      C1728   1.349       .  A
N1724      N1725   1.319       .  A
N1724     Mn1738   2.216       .  S
N1725      C1727   1.352       .  A
Mn1726    Cl1739   2.561       .  S
C1727      C2531   1.420       .  S
C1728      C2539   1.440       .  S
N1729      N1730   1.324       .  A
N1729      N1735   1.323       .  A
N1729     Mn1737   2.236       .  S
N1730      C1740   1.356       .  A
N1731      N1732   1.322       .  A
N1731      N1733   1.318       .  A
N1731     Mn1738   2.204       .  S
N1732      C1741   1.350       .  A
N1733      N1734   1.326       .  A
N1733     Mn1737   2.227       .  S
N1734      C1741   1.354       .  A
N1735      N1736   1.319       .  A
N1735     Mn1738   2.207       .  S
N1736      C1740   1.348       .  A
Mn1737    Cl1739   2.564       .  S
Mn1738    Cl1739   2.525       .  S
C1740      C2535   1.440       .  S
C1741      C2530   1.450       .  S
N1742      N1748   1.313       .  A
N1742     Mn1771   2.217       .  S
N1743      C1750   1.353       .  A
N1744      N1746   1.319       .  A
N1744      N1745   1.322       .  A
N1744     Mn1760   2.210       .  S
N1745      C1751   1.351       .  A
N1746      N1747   1.321       .  A
N1746     Mn1771   2.211       .  S
N1747      C1751   1.351       .  A
N1748     Mn1760   2.197       .  S
N1749      C1750   1.353       .  A
C1750      C2541   1.448       .  S
C1751      C2537   1.439       .  S
N1752      N1758   1.318       .  A
N1752      N1753   1.325       .  A
N1752     Mn1782   2.228       .  S
N1753      C1761   1.356       .  A
N1754      N1756   1.317       .  A
N1754     Mn1760   2.191       .  S
N1755      C1762   1.348       .  A
N1756     Mn1782   2.196       .  S
N1757      C1762   1.350       .  A
N1758      N1759   1.319       .  A
N1758     Mn1760   2.199       .  S
N1759      C1761   1.348       .  A
Mn1760    Cl1784   2.526       .  S
C1761      C2523   1.443       .  S
C1762      C2522   1.424       .  S
N1763      N1764   1.333       .  A
N1763      N1769   1.317       .  A
N1763     Mn1771   2.284       .  S
N1764      C1772   1.363       .  A
N1765      N1767   1.318       .  A
N1765     Mn1783   2.281       .  S
N1766      C1773   1.361       .  A
N1767     Mn1771   2.146       .  S
N1768      C1773   1.334       .  A
N1769      N1770   1.311       .  A
N1769     Mn1783   2.143       .  S
N1770      C1772   1.331       .  A
Mn1771    Cl1784   2.525       .  S
C1772      C2525   1.452       .  S
N1774      N1780   1.321       .  A
N1774     Mn1782   2.229       .  S
N1775      C1785   1.353       .  A
N1776      N1777   1.319       .  A
N1776      N1778   1.313       .  A
N1776     Mn1783   2.198       .  S
N1777      C1786   1.348       .  A
N1778      N1779   1.324       .  A
N1778     Mn1782   2.196       .  S
N1779      C1786   1.354       .  A
N1780     Mn1783   2.205       .  S
N1781      C1785   1.350       .  A
Mn1782    Cl1784   2.544       .  S
Mn1783    Cl1784   2.505       .  S
C1785      C2536   1.441       .  S
C1786      C2540   1.440       .  S
N1787      N1788   1.335       .  A
N1787     Mn1816   2.251       .  S
N1788      C1795   1.360       .  A
N1789      N1790   1.323   1_655  A
N1789     Mn1805   2.245       .  S
N1791      N1792   1.315       .  A
N1791     Mn1816   2.161       .  S
N1792      C1796   1.342       .  A
N1793     Mn1805   2.156   1_455  S
N1794      C1795   1.332       .  A
C1795      C2528   1.458       .  S
C1796      C2519   1.429       .  S
N1797      N1803   1.309       .  A
N1797      N1798   1.323       .  A
N1797     Mn1827   2.196       .  S
N1798      C1806   1.353       .  A
N1799      N1800   1.325       .  A
N1799      N1801   1.317       .  A
N1799     Mn1805   2.197       .  S
N1800      C1807   1.346       .  A
N1801      N1802   1.324       .  A
N1801     Mn1827   2.199       .  S
N1802      C1807   1.349       .  A
N1803      N1804   1.320       .  A
N1803     Mn1805   2.183       .  S
N1804      C1806   1.349       .  A
Mn1805    Cl1829   2.502       .  S
C1806      C2515   1.440       .  S
C1807      C3392   1.448       .  S
N1808      N1809   1.323       .  A
N1808      N1814   1.316       .  A
N1808     Mn1816   2.211       .  S
N1809      C1817   1.351       .  A
N1810      N2660   1.325   1_545  A
N1810      N1811   1.321       .  A
N1811      C1818   1.350       .  A
N1812      N2658   1.325       .  A
N1812      N2661   1.327       .  A
N1812     Mn1816   2.256       .  S
N1813      N2660   1.327   1_545  A
N1813      C1818   1.359       .  A
N1814      N1815   1.322       .  A
N1815      C1817   1.351       .  A
C1817      C2511   1.444       .  S
C1818      C2514   1.454       .  S
N1819      N1820   1.316   1_565  A
N1819      N1825   1.313   1_565  A
N1819     Mn2675   2.161       .  S
N1820      C1830   1.342       .  A
N1821      N1822   1.320       .  A
N1821      N1823   1.321       .  A
N1821     Mn1828   2.226       .  S
N1822      C1831   1.352       .  A
N1823      N1824   1.318       .  A
N1823     Mn1827   2.189       .  S
N1824      C1831   1.347       .  A
N1825      N1826   1.322       .  A
N1825     Mn2676   2.202   1_545  S
N1826      C1830   1.353       .  A
Mn1827     N2667   2.161       .  S
Mn1827    Cl1829   2.549       .  S
Mn1828     N2673   2.202       .  S
Mn1828    Cl1829   2.522       .  S
C1830      C2517   1.426       .  S
C1831      C2509   1.428       .  S
N1832      N1833   1.334       .  A
N1832      N1838   1.319       .  A
N1832     Mn1861   2.235       .  S
N1833      C1840   1.357       .  A
N1834      N1836   1.318       .  A
N1834      N1835   1.325       .  A
N1834     Mn1850   2.248       .  S
N1835      C1841   1.358       .  A
N1836      N1837   1.313       .  A
N1836     Mn1861   2.151       .  S
N1837      C1841   1.340       .  A
N1838      N1839   1.314       .  A
N1838     Mn1850   2.161       .  S
N1839      C1840   1.333       .  A
C1840      C2526   1.455       .  S
C1841      C2520   1.428       .  S
N1842      N1848   1.310       .  A
N1842      N1843   1.323       .  A
N1842     Mn1872   2.195       .  S
N1843      C1851   1.353       .  A
N1844      N1845   1.325       .  A
N1844      N1846   1.317       .  A
N1844     Mn1850   2.210       .  S
N1845      C1852   1.350       .  A
N1846      N1847   1.325       .  A
N1846     Mn1872   2.208       .  S
N1847      C1852   1.350       .  A
N1848      N1849   1.320       .  A
N1848     Mn1850   2.184       .  S
N1849      C1851   1.349       .  A
Mn1850    Cl1874   2.516       .  S
C1851      C2516   1.440       .  S
C1852      C2534   1.451       .  S
N1853      N1854   1.316       .  A
N1853      N1859   1.315       .  A
N1853     Mn1861   2.178       .  S
N1854      C1862   1.343       .  A
N1855      N1857   1.326       .  A
N1855      N1856   1.323       .  A
N1855     Mn1873   2.243       .  S
N1856      C1863   1.352       .  A
N1857      N1858   1.326       .  A
N1857     Mn1861   2.244       .  S
N1858      C1863   1.357       .  A
N1859      N1860   1.322       .  A
N1859     Mn1873   2.199       .  S
N1860      C1862   1.353       .  A
Mn1861    Cl1874   2.542       .  S
C1862      C2506   1.427       .  S
C1863      C2513   1.454       .  S
N1864      N1865   1.314       .  A
N1864      N1870   1.313       .  A
N1864     Mn1872   2.161       .  S
N1865      C1875   1.342       .  A
N1866      N1867   1.328       .  A
N1866      N1868   1.321       .  A
N1866     Mn1873   2.260       .  S
N1867      C1876   1.360       .  A
N1868      N1869   1.320       .  A
N1868     Mn1872   2.203       .  S
N1869      C1876   1.349       .  A
N1870      N1871   1.323       .  A
N1870     Mn1873   2.204       .  S
N1871      C1875   1.355       .  A
Mn1872    Cl1874   2.546       .  S
Mn1873    Cl1874   2.540       .  S
C1875      C2518   1.425       .  S
C1876      C2508   1.455       .  S
N1877      N1878   1.323       .  A
N1877      N1883   1.319       .  A
N1877     Mn1906   2.214       .  S
N1878      C1885   1.350       .  A
N1879      N1881   1.322       .  A
N1879      N1880   1.319       .  A
N1879     Mn1895   2.214       .  S
N1880      C1886   1.349       .  A
N1881      N1882   1.321       .  A
N1881     Mn1906   2.211       .  S
N1882      C1886   1.351       .  A
N1883      N1884   1.327       .  A
N1883     Mn1895   2.242       .  S
N1884      C1885   1.358       .  A
C1885      C2507   1.455       .  S
C1886      C2497   1.432       .  S
N1887      N1888   1.315       .  A
N1887     Mn1917   2.156       .  S
N1888      C1896   1.340       .  A
N1889      N1890   1.323       .  A
N1889     Mn1895   2.227   1_455  S
N1891      N1892   1.315       .  A
N1891     Mn1917   2.179       .  S
N1892      C1897   1.344       .  A
N1893      N1894   1.328       .  A
N1893     Mn1895   2.242   1_455  S
Mn1895    Cl1919   2.530       .  S
C1896      C2502   1.438       .  S
C1897      C2505   1.426       .  S
N1898      N1899   1.332       .  A
N1898      N1904   1.309       .  A
N1898     Mn1906   2.246       .  S
N1899      C1907   1.369       .  A
N1900      N1902   1.317       .  A
N1900      N1901   1.327       .  A
N1900     Mn1918   2.256       .  S
N1901      C1908   1.361       .  A
N1902      N1903   1.314       .  A
N1902     Mn1906   2.152       .  S
N1903      C1908   1.341       .  A
N1904      N1905   1.302       .  A
N1904     Mn1918   2.125       .  S
N1905      C1907   1.323       .  A
Mn1906    Cl1919   2.560       .  S
C1907      C2494   1.428       .  S
C1908      C2499   1.435       .  S
N1909      N1910   1.322       .  A
N1909     Mn1917   2.205       .  S
N1910      C1920   1.352       .  A
N1911      N1912   1.323       .  A
N1911     Mn1918   2.199   1_455  S
N1913      N1914   1.328       .  A
N1913     Mn1917   2.205       .  S
N1914      C1921   1.354       .  A
N1915      N1916   1.319       .  A
N1915     Mn1918   2.164   1_455  S
Mn1918    Cl1919   2.511       .  S
C1920      C2495   1.435       .  S
C1921      C2503   1.454       .  S
N1922      N1923   1.321       .  A
N1922      N1928   1.318       .  A
N1922     Mn1951   2.210       .  S
N1923      C1930   1.350       .  A
N1924      N1926   1.323       .  A
N1924      N1925   1.320       .  A
N1924     Mn1940   2.216       .  S
N1925      C1931   1.349       .  A
N1926      N1927   1.321       .  A
N1926     Mn2799   2.217   1_545  S
N1927      C1931   1.352       .  A
N1928      N1929   1.324       .  A
N1928     Mn2788   2.221       .  S
N1929      C1930   1.354       .  A
C1930      C2512   1.445       .  S
C1931      C2496   1.435       .  S
N1932      N1938   1.314       .  A
N1932      N1933   1.315       .  A
N1932     Mn2810   2.157   1_545  S
N1933      C1941   1.340       .  A
N1934      N1935   1.322       .  A
N1934      N1936   1.319       .  A
N1934     Mn2788   2.223       .  S
N1935      C1942   1.354       .  A
N1936      N1937   1.316       .  A
N1936     Mn1962   2.182       .  S
N1937      C1942   1.345       .  A
N1938      N1939   1.326       .  A
N1938     Mn1940   2.231       .  S
N1939      C1941   1.359       .  A
Mn1940     N2776   2.221   1_545  S
Mn1940     N2782   2.223   1_545  S
Mn1940    Cl2812   2.526   1_545  S
C1941      C2500   1.435       .  S
C1942      C2510   1.427       .  S
N1943      N1944   1.332       .  A
N1943      N1949   1.309       .  A
N1943     Mn1951   2.246       .  S
N1944      C1952   1.368       .  A
N1945      N1947   1.316       .  A
N1945      N1946   1.328       .  A
N1945     Mn1963   2.266       .  S
N1946      C1953   1.362       .  A
N1947      N1948   1.314       .  A
N1947     Mn1951   2.145       .  S
N1948      C1953   1.340       .  A
N1949      N1950   1.304       .  A
N1949     Mn1963   2.138       .  S
N1950      C1952   1.323       .  A
Mn1951     N2774   2.217       .  S
Mn1951    Cl1964   2.560       .  S
C1952      C2491   1.430       .  S
C1953      C2501   1.439       .  S
N1954      N1955   1.320       .  A
N1954      N1960   1.310       .  A
N1954     Mn1962   2.200       .  S
N1955      C1965   1.351       .  A
N1956      N1957   1.322       .  A
N1956      N1958   1.313       .  A
N1956     Mn1963   2.196       .  S
N1957      C1966   1.344       .  A
N1958      N1959   1.327       .  A
N1958     Mn1962   2.204       .  S
N1959      C1966   1.354       .  A
N1960      N1961   1.319       .  A
N1960     Mn1963   2.165       .  S
N1961      C1965   1.349       .  A
Mn1962     N2780   2.157       .  S
Mn1962    Cl1964   2.541       .  S
Mn1963    Cl1964   2.504       .  S
Cl1964    Mn2788   2.526       .  S
C1965      C2498   1.431       .  S
C1966      C3338   1.451       .  S
N1967      N1973   1.313       .  A
N1967     Mn1996   2.214       .  S
N1969      N1971   1.311       .  A
N1969      N1970   1.321       .  A
N1969     Mn1985   2.177       .  S
N1971     Mn1996   2.211       .  S
N1972      C1976   1.354       .  A
N1973      N1974   1.322       .  A
N1973     Mn1985   2.189       .  S
N1974      C1975   1.344       .  A
C1975      C2504   1.454       .  S
C1976      C2482   1.441       .  S
N1977      N1983   1.317       .  A
N1977      N1978   1.313       .  A
N1977     Mn2007   2.133       .  S
N1978      C1986   1.340       .  A
N1979      N1980   1.309       .  A
N1979      N1981   1.310       .  A
N1979     Mn1985   2.164       .  S
N1980      C1987   1.325       .  A
N1981      N1982   1.331       .  A
N1981     Mn2007   2.242       .  S
N1982      C1987   1.362       .  A
N1983      N1984   1.326       .  A
N1983     Mn1985   2.266       .  S
N1984      C1986   1.360       .  A
Mn1985    Cl2009   2.497       .  S
C1986      C2487   1.431       .  S
C1987      C2492   1.439       .  S
N1988      N1994   1.321       .  A
N1988     Mn1996   2.196       .  S
N1989      C1997   1.348       .  A
N1990      N1992   1.314       .  A
N1990      N1991   1.325       .  A
N1990     Mn2008   2.224       .  S
N1991      C1998   1.358       .  A
N1992     Mn1996   2.152       .  S
N1994      N1995   1.320       .  A
N1994     Mn2008   2.221       .  S
Mn1996    Cl2009   2.539       .  S
C1997      C2479   1.428       .  S
N1999      N2000   1.322       .  A
N1999      N2005   1.323       .  A
N1999     Mn2007   2.225       .  S
N2000      C2010   1.353       .  A
N2001      N2002   1.325       .  A
N2001      N2003   1.317       .  A
N2001     Mn2008   2.219       .  S
N2002      C2011   1.354       .  A
N2003      N2004   1.323       .  A
N2003     Mn2007   2.211       .  S
N2004      C2011   1.351       .  A
N2005      N2006   1.320       .  A
N2005     Mn2008   2.220       .  S
N2006      C2010   1.350       .  A
Mn2007    Cl2009   2.555       .  S
Mn2008    Cl2009   2.520       .  S
C2010      C2483   1.439       .  S
C2011      C2477   1.450       .  S
N2012      N2013   1.327       .  A
N2012      N2018   1.314       .  A
N2012     Mn2041   2.212       .  S
N2013      C2020   1.354       .  A
N2014      N2016   1.311       .  A
N2014      N2015   1.320       .  A
N2014     Mn2030   2.175       .  S
N2015      C2021   1.350       .  A
N2016      N2017   1.322       .  A
N2016     Mn2041   2.210       .  S
N2017      C2021   1.353       .  A
N2018      N2019   1.322       .  A
N2018     Mn2030   2.190       .  S
N2019      C2020   1.344       .  A
C2020      C2489   1.451       .  S
C2021      C2484   1.439       .  S
N2022      N2028   1.317       .  A
N2022      N2023   1.313       .  A
N2022     Mn2052   2.135       .  S
N2023      C2031   1.340       .  A
N2024      N2025   1.309       .  A
N2024      N2026   1.311       .  A
N2024     Mn2030   2.165       .  S
N2025      C2032   1.325       .  A
N2026      N2027   1.331       .  A
N2026     Mn2052   2.240       .  S
N2027      C2032   1.361       .  A
N2028      N2029   1.326       .  A
N2028     Mn2030   2.264       .  S
N2029      C2031   1.359       .  A
Mn2030    Cl2054   2.485       .  S
C2031      C2485   1.430       .  S
C2032      C2493   1.440       .  S
N2033      N2034   1.317       .  A
N2033      N2039   1.320       .  A
N2033     Mn2041   2.193       .  S
N2034      C2042   1.348       .  A
N2035      N2037   1.314       .  A
N2035      N2036   1.326       .  A
N2035     Mn2053   2.226       .  S
N2036      C2043   1.358       .  A
N2037      N2038   1.314       .  A
N2037     Mn2041   2.151       .  S
N2038      C2043   1.339       .  A
N2039      N2040   1.320       .  A
N2039     Mn2053   2.220       .  S
N2040      C2042   1.352       .  A
Mn2041    Cl2054   2.536       .  S
C2042      C2476   1.427       .  S
C2043      C3336   1.431   1_545  S
N2044      N2045   1.323       .  A
N2044      N2050   1.323       .  A
N2044     Mn2052   2.227       .  S
N2045      C2055   1.354       .  A
N2046      N2047   1.325       .  A
N2046      N2048   1.316       .  A
N2046     Mn2053   2.217       .  S
N2047      C2056   1.355       .  A
N2048      N2049   1.322       .  A
N2048     Mn2052   2.204       .  S
N2049      C2056   1.350       .  A
N2050      N2051   1.320       .  A
N2050     Mn2053   2.222       .  S
N2051      C2055   1.350       .  A
Mn2052    Cl2054   2.555       .  S
Mn2053    Cl2054   2.531       .  S
C2055      C3329   1.441   1_545  S
C2056      C2473   1.448       .  S
N2057      N2058   1.313       .  A
N2057      N2063   1.318       .  A
N2057     Mn2086   2.170       .  S
N2058      C2065   1.343       .  A
N2059      N2061   1.315       .  A
N2059      N2060   1.327       .  A
N2059     Mn2075   2.235       .  S
N2060      C2066   1.360       .  A
N2061      N2062   1.315       .  A
N2061     Mn2086   2.161       .  S
N2062      C2066   1.341       .  A
N2063      N2064   1.321       .  A
N2063     Mn2075   2.217       .  S
N2064      C2065   1.354       .  A
C2065      C2532   1.420       .  S
C2066      C2469   1.437       .  S
N2067      N2068   1.321   1_455  A
N2067     Mn2097   2.214       .  S
N2068      C2076   1.351       .  A
N2069      N2070   1.325       .  A
N2069     Mn2075   2.227       .  S
N2071      N2072   1.323       .  A
N2071     Mn2097   2.218   1_655  S
N2072      C2077   1.351       .  A
N2073      N2074   1.319       .  A
N2073     Mn2075   2.211       .  S
Mn2075    Cl2099   2.526       .  S
C2076      C2463   1.432       .  S
C2077      C2529   1.451       .  S
N2078      N2079   1.326       .  A
N2078      N2084   1.313       .  A
N2078     Mn2086   2.195       .  S
N2079      C2087   1.353       .  A
N2080      N2082   1.310       .  A
N2080      N2929   1.318       .  A
N2080     Mn2098   2.160       .  S
N2081      N2928   1.318       .  A
N2081      C2088   1.348       .  A
N2082      N2083   1.320       .  A
N2082     Mn2086   2.200       .  S
N2083      C2936   1.351       .  A
N2084      N2085   1.322       .  A
N2084     Mn2098   2.199       .  S
N2085      C2087   1.345       .  A
Mn2086    Cl2099   2.543       .  S
C2087      C2471   1.449       .  S
C2088      N2931   1.351       .  A
C2088      C2466   1.430       .  S
N2089      N2090   1.314   1_455  A
N2089     Mn2097   2.150       .  S
N2090      C2948   1.341       .  A
N2091      N2092   1.302       .  A
N2091     Mn2098   2.126       .  S
N2093      N2094   1.333   1_455  A
N2093     Mn2097   2.252       .  S
N2094      C2101   1.370   1_655  A
N2095      N2944   1.327       .  A
N2095     Mn2098   2.260       .  S
N2096      N2943   1.327       .  A
Mn2098    Cl2099   2.505       .  S
C2100      N2938   1.341       .  A
C2100      C2468   1.437       .  S
C2101      C2462   1.430   1_455  S
N2102      N2103   1.316       .  A
N2102      N2108   1.318       .  A
N2102     Mn2131   2.190       .  S
N2103      C2110   1.348       .  A
N2104      N2106   1.314       .  A
N2104      N2105   1.327       .  A
N2104     Mn2120   2.233       .  S
N2105      C2111   1.360       .  A
N2106      N2107   1.315       .  A
N2106     Mn2131   2.158       .  S
N2107      C2111   1.340       .  A
N2108      N2109   1.320       .  A
N2108     Mn2120   2.207       .  S
N2109      C2110   1.351       .  A
C2110      C2521   1.424       .  S
C2111      C2467   1.437       .  S
N2112      N2118   1.322       .  A
N2112      N2113   1.321       .  A
N2112     Mn2142   2.216       .  S
N2113      C2121   1.351       .  A
N2114      N2115   1.324       .  A
N2114      N2116   1.317       .  A
N2114     Mn2120   2.217       .  S
N2115      C2122   1.354       .  A
N2116      N2117   1.321       .  A
N2116     Mn2142   2.209       .  S
N2117      C2122   1.350       .  A
N2118      N2119   1.318       .  A
N2118     Mn2120   2.205       .  S
N2119      C2121   1.347       .  A
Mn2120    Cl2144   2.525       .  S
C2121      C2465   1.430       .  S
C2122      C2524   1.444       .  S
N2123      N2124   1.328       .  A
N2123      N2129   1.315       .  A
N2123     Mn2131   2.210       .  S
N2124      C2132   1.354       .  A
N2125      N2127   1.310       .  A
N2125      N2126   1.318       .  A
N2125     Mn2143   2.161       .  S
N2126      C2133   1.348       .  A
N2127      N2128   1.321       .  A
N2127     Mn2131   2.202       .  S
N2128      C2133   1.352       .  A
N2129      N2130   1.322       .  A
N2129     Mn2143   2.196       .  S
N2130      C2132   1.344       .  A
Mn2131    Cl2144   2.541       .  S
C2132      C2459   1.453       .  S
C2133      C2464   1.432       .  S
N2134      N2135   1.314       .  A
N2134      N2140   1.316       .  A
N2134     Mn2142   2.152       .  S
N2135      C2145   1.341       .  A
N2136      N2137   1.304       .  A
N2136      N2138   1.310       .  A
N2136     Mn2143   2.132       .  S
N2137      C2146   1.324       .  A
N2138      N2139   1.331       .  A
N2138     Mn2142   2.243       .  S
N2139      C2146   1.368       .  A
N2140      N2141   1.327       .  A
N2140     Mn2143   2.258       .  S
N2141      C2145   1.361       .  A
Mn2142    Cl2144   2.559       .  S
Mn2143    Cl2144   2.505       .  S
C2145      C2470   1.437       .  S
C2146      C2457   1.429       .  S
N2147      N2153   1.311       .  A
N2148      C2155   1.361       .  A
N2149      N2151   1.317       .  A
N2149      N2150   1.325       .  A
N2149     Mn2165   2.263   1_545  S
N2150      C2156   1.359   1_655  A
N2153      N2154   1.309       .  A
N2153     Mn3013   2.166       .  S
C2155      C3309   1.442       .  S
N2157      N2163   1.310       .  A
N2157      N2158   1.323       .  A
N2157     Mn3035   2.211   1_545  S
N2158      C2166   1.354       .  A
N2159      N2160   1.322       .  A
N2159      N2161   1.313       .  A
N2159     Mn3013   2.188       .  S
N2160      C2167   1.344       .  A
N2161      N2162   1.328       .  A
N2161     Mn2187   2.214       .  S
N2162      C2167   1.355       .  A
N2163      N2164   1.321       .  A
N2163     Mn2165   2.178   1_545  S
N2164      C2166   1.351       .  A
Mn2165     N3001   2.166       .  S
Mn2165     N3007   2.188       .  S
Mn2165    Cl3037   2.498       .  S
C2166      C2452   1.443       .  S
C2167      C2460   1.453       .  S
N2168      N2174   1.316   1_455  A
N2169      C3025   1.349       .  A
N2170      N2171   1.320       .  A
N2170     Mn2188   2.223       .  S
N2172      N2173   1.324       .  A
N2172     Mn2176   2.231       .  S
N2173      C2178   1.354       .  A
N2174      N2175   1.325       .  A
N2174     Mn2188   2.217       .  S
C2177      N3017   1.349       .  A
C2177      C2447   1.447       .  S
C2178      C2450   1.442       .  S
N2179      N2180   1.313       .  A
N2179      N2185   1.314       .  A
N2179     Mn2187   2.152       .  S
N2180      C2190   1.339       .  A
N2181      N2182   1.321       .  A
N2181      N2183   1.321       .  A
N2181     Mn2188   2.223       .  S
N2182      C2191   1.353       .  A
N2183      N2184   1.318       .  A
N2183     Mn2187   2.197       .  S
N2184      C2191   1.348       .  A
N2185      N2186   1.325       .  A
N2185     Mn2188   2.221       .  S
N2186      C2190   1.357       .  A
Mn2187     N3005   2.211       .  S
Mn2187    Cl2189   2.537       .  S
Mn2188    Cl2189   2.522       .  S
Cl2189    Mn3013   2.498       .  S
C2190      C2455   1.428       .  S
C2191      C2445   1.430       .  S
N2192      N2193   1.330       .  A
N2192      N2198   1.312       .  A
N2192     Mn2221   2.237       .  S
N2193      C2200   1.360       .  A
N2194      N2196   1.317       .  A
N2194      N2195   1.325       .  A
N2194     Mn2210   2.257       .  S
N2195      C2201   1.358       .  A
N2196      N2197   1.313       .  A
N2196     Mn2221   2.137       .  S
N2197      C2201   1.340       .  A
N2198      N2199   1.309       .  A
N2198     Mn2210   2.164       .  S
N2199      C2200   1.326       .  A
C2200      C2458   1.439       .  S
C2201      C2456   1.428       .  S
N2202      N2208   1.311       .  A
N2202      N2203   1.323       .  A
N2202     Mn2232   2.212       .  S
N2203      C2211   1.354       .  A
N2204      N2205   1.321       .  A
N2204      N2206   1.314       .  A
N2204     Mn2210   2.188       .  S
N2205      C2212   1.344       .  A
N2206      N2207   1.327       .  A
N2206     Mn2232   2.209       .  S
N2207      C2212   1.354       .  A
N2208      N2209   1.321       .  A
N2208     Mn2210   2.178       .  S
N2209      C2211   1.350       .  A
Mn2210    Cl2234   2.489       .  S
C2211      C2449   1.442       .  S
C2212      C2472   1.449       .  S
N2213      N2214   1.322       .  A
N2213      N2219   1.315       .  A
N2213     Mn2221   2.203       .  S
N2214      C2222   1.349       .  A
N2215      N2217   1.323       .  A
N2215      N2216   1.321       .  A
N2215     Mn2233   2.225       .  S
N2216      C2223   1.351       .  A
N2217      N2218   1.323       .  A
N2217     Mn2221   2.227       .  S
N2218      C2223   1.354       .  A
N2219      N2220   1.325       .  A
N2219     Mn2233   2.215       .  S
N2220      C2222   1.355       .  A
Mn2221    Cl2234   2.553       .  S
C2222      C2443   1.446       .  S
C2223      C2451   1.443       .  S
N2224      N2225   1.313       .  A
N2224      N2230   1.314       .  A
N2224     Mn2232   2.153       .  S
N2225      C2235   1.339       .  A
N2226      N2227   1.321       .  A
N2226      N2228   1.320       .  A
N2226     Mn2233   2.221       .  S
N2227      C2236   1.353       .  A
N2228      N2229   1.317       .  A
N2228     Mn2232   2.191       .  S
N2229      C2236   1.347       .  A
N2230      N2231   1.325       .  A
N2230     Mn2233   2.222       .  S
N2231      C2235   1.358       .  A
Mn2232    Cl2234   2.535       .  S
Mn2233    Cl2234   2.534       .  S
C2235      C2454   1.429       .  S
C2236      C2441   1.428       .  S
N2237      N2238   1.323       .  A
N2237      N2243   1.317       .  A
N2237     Mn2266   2.211       .  S
N2238      C2245   1.350       .  A
N2239      N2241   1.324       .  A
N2239      N2240   1.317       .  A
N2239     Mn2255   2.206       .  S
N2240      C2246   1.346       .  A
N2241      N2242   1.322       .  A
N2241     Mn2266   2.228       .  S
N2242      C2246   1.354       .  A
N2243      N2244   1.324       .  A
N2243     Mn2255   2.209       .  S
N2244      C2245   1.353       .  A
C2245      C2444   1.446       .  S
C2246      C2433   1.433       .  S
N2247      N2248   1.315       .  A
N2247     Mn2277   2.154       .  S
N2248      C2256   1.341       .  A
N2249      N2250   1.320       .  A
N2249     Mn2255   2.220       .  S
N2251      N2252   1.318       .  A
N2251     Mn2277   2.196       .  S
N2252      C2257   1.348       .  A
N2253      N2254   1.324       .  A
N2253     Mn2255   2.214       .  S
Mn2255    Cl2279   2.529       .  S
C2256      C2438   1.430       .  S
C2257      C2442   1.428       .  S
N2258      N2259   1.335       .  A
N2258      N2264   1.311       .  A
N2258     Mn2266   2.257       .  S
N2259      C2267   1.368       .  A
N2260      N2262   1.319       .  A
N2260      N2261   1.324       .  A
N2260     Mn2278   2.244       .  S
N2261      C2268   1.358       .  A
N2262      N2263   1.314       .  A
N2262     Mn2266   2.159       .  S
N2263      C2268   1.342       .  A
N2264      N2265   1.306       .  A
N2264     Mn2278   2.131       .  S
N2265      C2267   1.326       .  A
Mn2266    Cl2279   2.563       .  S
C2267      C2429   1.442       .  S
C2268      C2435   1.429       .  S
N2269      N2270   1.322       .  A
N2269     Mn2277   2.200       .  S
N2270      C2280   1.353       .  A
N2271      N2272   1.323       .  A
N2271     Mn2278   2.190       .  S
N2273      N2274   1.327       .  A
N2273     Mn2277   2.211       .  S
N2274      C2281   1.352       .  A
N2275      N2276   1.318       .  A
N2275     Mn2278   2.161       .  S
Mn2278    Cl2279   2.498       .  S
C2280      C2431   1.432       .  S
C2281      C2440   1.453       .  S
N2282      N2283   1.318       .  A
N2282      N2288   1.321       .  A
N2282     Mn2311   2.198       .  S
N2283      C2290   1.348       .  A
N2284      N2286   1.313       .  A
N2284      N2285   1.325       .  A
N2284     Mn2300   2.217       .  S
N2285      C2291   1.356       .  A
N2286      N2287   1.315       .  A
N2286     Mn2311   2.153       .  S
N2287      C2291   1.340       .  A
N2288      N2289   1.319       .  A
N2288     Mn2300   2.220       .  S
N2289      C2290   1.352       .  A
C2290      C2475   1.428       .  S
C2291      C3273   1.430   1_545  S
N2292      N2293   1.322       .  A
N2292     Mn2322   2.226       .  S
N2293      C2301   1.353       .  A
N2294      N2295   1.324       .  A
N2294     Mn2300   2.215       .  S
N2296      N2297   1.322       .  A
N2296     Mn2322   2.211       .  S
N2297      C2302   1.350       .  A
N2298      N2299   1.319       .  A
N2298     Mn2300   2.212       .  S
Mn2300    Cl2324   2.526       .  S
C2301      C3269   1.435   1_545  S
C2302      C2474   1.448       .  S
N2303      N2304   1.328       .  A
N2303      N2309   1.317       .  A
N2303     Mn2311   2.213       .  S
N2304      C2312   1.353       .  A
N2305      N2307   1.309       .  A
N2305      N2306   1.319       .  A
N2305     Mn2323   2.166       .  S
N2306      C2313   1.348       .  A
N2307      N2308   1.322       .  A
N2307     Mn2311   2.200       .  S
N2308      C2313   1.353       .  A
N2309      N2310   1.324       .  A
N2309     Mn2323   2.193       .  S
N2310      C2312   1.342       .  A
Mn2311    Cl2324   2.542       .  S
C2312      C2420   1.456       .  S
C2313      C2424   1.436       .  S
N2314      N2315   1.314       .  A
N2314     Mn2322   2.163       .  S
N2315      C2325   1.342       .  A
N2316      N2317   1.306       .  A
N2316     Mn2323   2.129       .  S
N2318      N2319   1.334       .  A
N2318     Mn2322   2.247       .  S
N2319      C2326   1.367       .  A
N2320      N2321   1.325       .  A
N2320     Mn2323   2.244       .  S
Mn2323    Cl2324   2.512       .  S
C2325      C2427   1.430       .  S
C2326      C2439   1.437       .  S
N2327      N2328   1.323       .  A
N2327      N2333   1.317       .  A
N2327     Mn2356   2.213       .  S
N2328      C2335   1.351       .  A
N2329      N2331   1.323       .  A
N2329      N2330   1.318       .  A
N2329     Mn2345   2.206       .  S
N2330      C2336   1.346       .  A
N2331      N2332   1.322       .  A
N2331     Mn2356   2.226       .  S
N2332      C2336   1.354       .  A
N2333      N2334   1.324       .  A
N2333     Mn2345   2.210       .  S
N2334      C2335   1.352       .  A
C2335      C2448   1.447       .  S
C2336      C2432   1.432       .  S
N2337      N2343   1.312       .  A
N2337      N2338   1.315       .  A
N2337     Mn2367   2.152       .  S
N2338      C2346   1.341       .  A
N2339      N2340   1.320       .  A
N2339      N2341   1.321       .  A
N2339     Mn2345   2.220       .  S
N2340      C2347   1.352       .  A
N2341      N2342   1.319       .  A
N2341     Mn2367   2.200       .  S
N2342      C2347   1.349       .  A
N2343      N2344   1.325       .  A
N2343     Mn2345   2.214       .  S
N2344      C2346   1.356       .  A
Mn2345    Cl2369   2.529       .  S
C2346      C2436   1.430       .  S
C2347      C2446   1.430       .  S
N2348      N2349   1.335       .  A
N2348      N2354   1.310       .  A
N2348     Mn2356   2.256       .  S
N2349      C2357   1.368       .  A
N2350      N2352   1.319       .  A
N2350      N2351   1.324       .  A
N2350     Mn2368   2.243       .  S
N2351      C2358   1.357       .  A
N2352      N2353   1.314       .  A
N2352     Mn3204   2.161   1_545  S
N2353      C2358   1.342       .  A
N2354      N2355   1.306       .  A
N2354     Mn3216   2.130       .  S
N2355      C2357   1.326       .  A
Mn2356     N3200   2.161       .  S
Mn2356    Cl2369   2.564       .  S
C2357      C3267   1.442       .  S
C2358      C2437   1.429       .  S
N2359      N2360   1.323       .  A
N2359      N2365   1.309       .  A
N2359     Mn3215   2.202   1_545  S
N2360      C2370   1.353       .  A
N2361      N2362   1.323       .  A
N2361      N2363   1.318       .  A
N2361     Mn3216   2.190       .  S
N2362      C2371   1.341       .  A
N2363      N2364   1.327       .  A
N2363     Mn2367   2.213       .  S
N2364      C2371   1.352       .  A
N2365      N2366   1.318       .  A
N2365     Mn2368   2.160       .  S
N2366      C2370   1.346       .  A
Mn2367     N3207   2.202       .  S
Mn2367    Cl2369   2.539       .  S
Mn2368     N3202   2.130   1_545  S
Mn2368     N3209   2.190   1_545  S
Mn2368    Cl3217   2.499   1_545  S
Cl2369    Mn3216   2.499       .  S
C2370      C2434   1.433       .  S
C2371      C2417   1.454       .  S
N2372      N2373   1.318       .  A
N2372      N2378   1.321       .  A
N2372     Mn2401   2.197       .  S
N2373      C2380   1.348       .  A
N2374      N2376   1.313       .  A
N2374      N2375   1.325       .  A
N2374     Mn2390   2.218       .  S
N2375      C2381   1.357       .  A
N2376      N2377   1.315       .  A
N2376     Mn2401   2.153       .  S
N2377      C2381   1.340       .  A
N2378      N2379   1.320       .  A
N2378     Mn2390   2.221       .  S
N2379      C2380   1.352       .  A
C2380      C2480   1.428       .  S
C2381      C2428   1.431       .  S
N2382      N2388   1.324       .  A
N2382      N2383   1.322       .  A
N2382     Mn2412   2.226       .  S
N2383      C2391   1.353       .  A
N2384      N2385   1.325       .  A
N2384      N2386   1.318       .  A
N2384     Mn2390   2.217       .  S
N2385      C2392   1.354       .  A
N2386      N2387   1.323       .  A
N2386     Mn2412   2.214       .  S
N2387      C2392   1.350       .  A
N2388      N2389   1.319       .  A
N2388     Mn2390   2.213       .  S
N2389      C2391   1.348       .  A
Mn2390    Cl2414   2.526       .  S
C2391      C2423   1.436       .  S
C2392      C2478   1.449       .  S
N2393      N2394   1.328       .  A
N2393      N2399   1.317       .  A
N2393     Mn2401   2.213       .  S
N2394      C2402   1.353       .  A
N2395      N2397   1.308       .  A
N2395      N2396   1.319       .  A
N2395     Mn2413   2.165       .  S
N2396      C2403   1.348       .  A
N2397      N2398   1.322       .  A
N2397     Mn2401   2.200       .  S
N2398      C2403   1.353       .  A
N2399      N2400   1.324       .  A
N2399     Mn2413   2.194       .  S
N2400      C2402   1.342       .  A
Mn2401    Cl2414   2.543       .  S
C2402      C2430   1.457       .  S
C2403      C2422   1.435       .  S
N2404      N2405   1.314       .  A
N2404      N2410   1.319       .  A
N2404     Mn2412   2.163       .  S
N2405      C2415   1.342       .  A
N2406      N2407   1.305       .  A
N2406      N2408   1.310       .  A
N2406     Mn2413   2.127       .  S
N2407      C2416   1.326       .  A
N2408      N2409   1.335       .  A
N2408     Mn2412   2.251       .  S
N2409      C2416   1.368       .  A
N2410      N2411   1.324       .  A
N2410     Mn2413   2.243       .  S
N2411      C2415   1.358       .  A
Mn2412    Cl2414   2.557       .  S
Mn2413    Cl2414   2.512       .  S
C2415      C2426   1.430       .  S
C2416      C2418   1.438       .  S
C2417      C2418   1.216       .  T
C2419      C3205   1.442       .  S
C2419      C2420   1.217       .  T
C2421      C3149   1.435       .  S
C2421      C2422   1.205       .  T
C2423      C2424   1.206       .  T
C2425      C3139   1.430       .  S
C2425      C2426   1.203       .  T
C2427      C2428   1.203       .  T
C2429      C2430   1.217       .  T
C2431      C2432   1.204       .  T
C2433      C2434   1.204       .  T
C2435      C2436   1.203       .  T
C2437      C2438   1.203       .  T
C2441      C2442   1.201       .  T
C2443      C2444   1.212       .  T
C2445      C2446   1.202       .  T
C2447      C2448   1.212       .  T
C2449      C2450   1.210       .  T
C2451      C2452   1.210       .  T
C2453      C2454   1.202       .  T
C2455      C2456   1.202       .  T
C2457      C2458   1.211       .  T
C2459      C2460   1.217       .  T
C2461      C3003   1.442       .  S
C2463      C2464   1.203       .  T
C2465      C2466   1.202       .  T
C2467      C2468   1.207       .  T
C2469      C2470   1.207       .  T
C2471      C2472   1.214       .  T
C2473      C2474   1.213       .  T
C2475      C2476   1.201       .  T
C2477      C2478   1.214       .  T
C2479      C2480   1.201       .  T
C2481      C2903   1.441       .  S
C2481      C2482   1.209       .  T
C2483      C2484   1.208       .  T
C2485      C2486   1.203       .  T
C2487      C2488   1.204       .  T
C2488      C2891   1.431       .  S
C2489      C2490   1.215   1_556  T
C2490      C2814   1.451       .  S
C2491      C2492   1.212   1_554  T
C2493      C2494   1.211   1_556  T
C2495      C2496   1.205       .  T
C2497      C2498   1.203       .  T
C2499      C2500   1.206       .  T
C2501      C2502   1.208       .  T
C2503      C2504   1.217   1_554  T
C2505      C2506   1.200       .  T
C2507      C2508   1.217       .  T
C2509      C2510   1.201       .  T
C2511      C2512   1.211       .  T
C2513      C2514   1.217       .  T
C2515      C2516   1.208       .  T
C2517      C2518   1.200       .  T
C2519      C2520   1.202       .  T
C2521      C2522   1.199       .  T
C2523      C2524   1.210       .  T
C2525      C2526   1.220       .  T
C2527      C2528   1.222       .  T
C2529      C2530   1.215       .  T
C2531      C2532   1.197       .  T
C2533      C2534   1.215       .  T
C2535      C2536   1.209       .  T
C2537      C2538   1.208       .  T
C2539      C2540   1.208       .  T
C2541      C2542   1.213       .  T
C2543      C2544   1.212   1_545  T
C2544      C2655   1.448       .  S
N2545      N2546   1.323       .  A
N2545      N2551   1.316       .  A
N2545     Mn2574   2.192       .  S
N2546      C2553   1.349       .  A
N2547      N2549   1.311       .  A
N2547     Mn2563   2.179       .  S
N2548      C2554   1.349       .  A
N2549      N2550   1.323       .  A
N2549     Mn2574   2.207       .  S
N2551      N2552   1.325       .  A
N2551     Mn2563   2.221       .  S
N2552      C2553   1.352       .  A
C2553      C3381   1.451       .  S
C2554      C3386   1.439       .  S
N2555     Mn2585   2.196       .  S
N2556      C2564   1.348       .  A
N2557      N2558   1.309       .  A
N2557      N2559   1.315       .  A
N2557     Mn2563   2.142       .  S
N2558      C2565   1.332       .  A
N2559      N2560   1.331       .  A
N2559     Mn2585   2.244       .  S
N2560      C2565   1.362       .  A
N2561      N2562   1.327   1_545  A
N2562      C2564   1.358       .  A
Mn2563    Cl2587   2.513       .  S
C2564      C3390   1.447       .  S
C2565      C3391   1.438       .  S
N2566      N2567   1.315       .  A
N2566      N2572   1.319       .  A
N2566     Mn2574   2.174       .  S
N2567      C2575   1.344       .  A
N2568      N2570   1.314       .  A
N2568      N2569   1.323       .  A
N2568     Mn2586   2.204       .  S
N2569      C2576   1.352       .  A
N2570      N2571   1.320       .  A
N2570     Mn2574   2.192       .  S
N2571      C2576   1.349       .  A
N2572      N2573   1.319       .  A
N2572     Mn2586   2.216       .  S
N2573      C2575   1.352       .  A
Mn2574    Cl2587   2.561       .  S
C2575      C3379   1.420       .  S
C2576      C3387   1.440       .  S
N2577      N2578   1.324       .  A
N2577      N2583   1.323       .  A
N2577     Mn2585   2.236       .  S
N2578      C2588   1.356       .  A
N2579      N2580   1.322       .  A
N2579      N2581   1.318       .  A
N2579     Mn2586   2.204       .  S
N2580      C2589   1.350       .  A
N2581      N2582   1.326       .  A
N2581     Mn2585   2.227       .  S
N2582      C2589   1.354       .  A
N2583      N2584   1.319       .  A
N2583     Mn2586   2.207       .  S
N2584      C2588   1.348       .  A
Mn2585    Cl2587   2.564       .  S
Mn2586    Cl2587   2.525       .  S
C2588      C3383   1.440       .  S
C2589      C3378   1.450       .  S
N2590      N2596   1.313       .  A
N2590     Mn2619   2.217       .  S
N2591      C2598   1.353       .  A
N2592      N2594   1.319       .  A
N2592      N2593   1.322       .  A
N2592     Mn2608   2.210       .  S
N2593      C2599   1.351       .  A
N2594      N2595   1.321       .  A
N2594     Mn2619   2.211       .  S
N2595      C2599   1.351       .  A
N2596     Mn2608   2.197       .  S
N2597      C2598   1.353       .  A
C2598      C3389   1.448       .  S
C2599      C3385   1.439       .  S
N2600      N2606   1.318       .  A
N2600      N2601   1.325       .  A
N2600     Mn2630   2.228       .  S
N2601      C2609   1.356       .  A
N2602      N2604   1.317       .  A
N2602     Mn2608   2.191       .  S
N2603      C2610   1.348       .  A
N2604     Mn2630   2.196       .  S
N2605      C2610   1.350       .  A
N2606      N2607   1.319       .  A
N2606     Mn2608   2.199       .  S
N2607      C2609   1.348       .  A
Mn2608    Cl2632   2.526       .  S
C2609      C3371   1.443       .  S
C2610      C3370   1.424       .  S
N2611      N2612   1.333       .  A
N2611      N2617   1.317       .  A
N2611     Mn2619   2.284       .  S
N2612      C2620   1.363       .  A
N2613      N2615   1.318       .  A
N2613     Mn2631   2.281       .  S
N2614      C2621   1.361       .  A
N2615     Mn2619   2.146       .  S
N2616      C2621   1.334       .  A
N2617      N2618   1.311       .  A
N2617     Mn2631   2.143       .  S
N2618      C2620   1.331       .  A
Mn2619    Cl2632   2.525       .  S
C2620      C3373   1.452       .  S
N2622      N2628   1.321       .  A
N2622     Mn2630   2.229       .  S
N2623      C2633   1.353       .  A
N2624      N2625   1.319       .  A
N2624      N2626   1.313       .  A
N2624     Mn2631   2.198       .  S
N2625      C2634   1.348       .  A
N2626      N2627   1.324       .  A
N2626     Mn2630   2.196       .  S
N2627      C2634   1.354       .  A
N2628     Mn2631   2.205       .  S
N2629      C2633   1.350       .  A
Mn2630    Cl2632   2.544       .  S
Mn2631    Cl2632   2.505       .  S
C2633      C3384   1.441       .  S
C2634      C3388   1.440       .  S
N2635      N2636   1.335       .  A
N2635     Mn2664   2.251       .  S
N2636      C2643   1.360       .  A
N2637      N2638   1.323   1_655  A
N2637     Mn2653   2.245       .  S
N2639      N2640   1.315       .  A
N2639     Mn2664   2.161       .  S
N2640      C2644   1.342       .  A
N2641     Mn2653   2.156   1_455  S
N2642      C2643   1.332       .  A
C2643      C3376   1.458       .  S
C2644      C3367   1.429       .  S
N2645      N2651   1.309       .  A
N2645      N2646   1.323       .  A
N2645     Mn2675   2.196       .  S
N2646      C2654   1.353       .  A
N2647      N2648   1.325       .  A
N2647      N2649   1.317       .  A
N2647     Mn2653   2.197       .  S
N2648      C2655   1.346       .  A
N2649      N2650   1.324       .  A
N2649     Mn2675   2.199       .  S
N2650      C2655   1.349       .  A
N2651      N2652   1.320       .  A
N2651     Mn2653   2.183       .  S
N2652      C2654   1.349       .  A
Mn2653    Cl2677   2.502       .  S
C2654      C3363   1.440       .  S
N2656      N2657   1.323       .  A
N2656      N2662   1.316       .  A
N2656     Mn2664   2.211       .  S
N2657      C2665   1.351       .  A
N2658      N2659   1.321       .  A
N2659      C2666   1.350       .  A
N2660     Mn2664   2.256       .  S
N2661      C2666   1.359       .  A
N2662      N2663   1.322       .  A
N2663      C2665   1.351       .  A
C2665      C3359   1.444       .  S
C2666      C3362   1.454       .  S
N2667      N2668   1.316       .  A
N2667      N2673   1.313       .  A
N2668      C2678   1.342       .  A
N2669      N2670   1.320       .  A
N2669      N2671   1.321       .  A
N2669     Mn2676   2.226       .  S
N2670      C2679   1.352       .  A
N2671      N2672   1.318       .  A
N2671     Mn2675   2.189       .  S
N2672      C2679   1.347       .  A
N2673      N2674   1.322       .  A
N2674      C2678   1.353       .  A
Mn2675    Cl2677   2.549       .  S
Mn2676    Cl2677   2.522       .  S
C2678      C3365   1.426       .  S
C2679      C3357   1.428       .  S
N2680      N2681   1.334       .  A
N2680      N2686   1.319       .  A
N2680     Mn2709   2.235       .  S
N2681      C2688   1.357       .  A
N2682      N2684   1.318       .  A
N2682      N2683   1.325       .  A
N2682     Mn2698   2.248       .  S
N2683      C2689   1.358       .  A
N2684      N2685   1.313       .  A
N2684     Mn2709   2.151       .  S
N2685      C2689   1.340       .  A
N2686      N2687   1.314       .  A
N2686     Mn2698   2.161       .  S
N2687      C2688   1.333       .  A
C2688      C3374   1.455       .  S
C2689      C3368   1.428       .  S
N2690      N2696   1.310       .  A
N2690      N2691   1.323       .  A
N2690     Mn2720   2.195       .  S
N2691      C2699   1.353       .  A
N2692      N2693   1.325       .  A
N2692      N2694   1.317       .  A
N2692     Mn2698   2.210       .  S
N2693      C2700   1.350       .  A
N2694      N2695   1.325       .  A
N2694     Mn2720   2.208       .  S
N2695      C2700   1.350       .  A
N2696      N2697   1.320       .  A
N2696     Mn2698   2.184       .  S
N2697      C2699   1.349       .  A
Mn2698    Cl2722   2.516       .  S
C2699      C3364   1.440       .  S
C2700      C3382   1.451       .  S
N2701      N2702   1.316       .  A
N2701      N2707   1.315       .  A
N2701     Mn2709   2.178       .  S
N2702      C2710   1.343       .  A
N2703      N2705   1.326       .  A
N2703      N2704   1.323       .  A
N2703     Mn2721   2.243       .  S
N2704      C2711   1.352       .  A
N2705      N2706   1.326       .  A
N2705     Mn2709   2.244       .  S
N2706      C2711   1.357       .  A
N2707      N2708   1.322       .  A
N2707     Mn2721   2.199       .  S
N2708      C2710   1.353       .  A
Mn2709    Cl2722   2.542       .  S
C2710      C3354   1.427       .  S
C2711      C3361   1.454       .  S
N2712      N2713   1.314       .  A
N2712      N2718   1.313       .  A
N2712     Mn2720   2.161       .  S
N2713      C2723   1.342       .  A
N2714      N2715   1.328       .  A
N2714      N2716   1.321       .  A
N2714     Mn2721   2.260       .  S
N2715      C2724   1.360       .  A
N2716      N2717   1.320       .  A
N2716     Mn2720   2.203       .  S
N2717      C2724   1.349       .  A
N2718      N2719   1.323       .  A
N2718     Mn2721   2.204       .  S
N2719      C2723   1.355       .  A
Mn2720    Cl2722   2.546       .  S
Mn2721    Cl2722   2.540       .  S
C2723      C3366   1.425       .  S
C2724      C3356   1.455       .  S
N2725      N2726   1.323       .  A
N2725      N2731   1.319       .  A
N2725     Mn2754   2.214       .  S
N2726      C2733   1.350       .  A
N2727      N2729   1.322       .  A
N2727      N2728   1.319       .  A
N2727     Mn2743   2.214       .  S
N2728      C2734   1.349       .  A
N2729      N2730   1.321       .  A
N2729     Mn2754   2.211       .  S
N2730      C2734   1.351       .  A
N2731      N2732   1.327       .  A
N2731     Mn2743   2.242       .  S
N2732      C2733   1.358       .  A
C2733      C3355   1.455       .  S
C2734      C3345   1.432       .  S
N2735      N2736   1.315       .  A
N2735     Mn2765   2.156       .  S
N2736      C2744   1.340       .  A
N2737      N2738   1.323       .  A
N2737     Mn2743   2.227   1_455  S
N2739      N2740   1.315       .  A
N2739     Mn2765   2.179       .  S
N2740      C2745   1.344       .  A
N2741      N2742   1.328       .  A
N2741     Mn2743   2.242   1_455  S
Mn2743    Cl2767   2.530       .  S
C2744      C3350   1.438       .  S
C2745      C3353   1.426       .  S
N2746      N2747   1.332       .  A
N2746      N2752   1.309       .  A
N2746     Mn2754   2.246       .  S
N2747      C2755   1.369       .  A
N2748      N2750   1.317       .  A
N2748      N2749   1.327       .  A
N2748     Mn2766   2.256       .  S
N2749      C2756   1.361       .  A
N2750      N2751   1.314       .  A
N2750     Mn2754   2.152       .  S
N2751      C2756   1.341       .  A
N2752      N2753   1.302       .  A
N2752     Mn2766   2.125       .  S
N2753      C2755   1.323       .  A
Mn2754    Cl2767   2.560       .  S
C2755      C3342   1.428       .  S
C2756      C3347   1.435       .  S
N2757      N2758   1.322       .  A
N2757     Mn2765   2.205       .  S
N2758      C2768   1.352       .  A
N2759      N2760   1.323       .  A
N2759     Mn2766   2.199   1_455  S
N2761      N2762   1.328       .  A
N2761     Mn2765   2.205       .  S
N2762      C2769   1.354       .  A
N2763      N2764   1.319       .  A
N2763     Mn2766   2.164   1_455  S
Mn2766    Cl2767   2.511       .  S
C2768      C3343   1.435       .  S
C2769      C3351   1.454       .  S
N2770      N2771   1.321       .  A
N2770      N2776   1.318       .  A
N2770     Mn2799   2.210       .  S
N2771      C2778   1.350       .  A
N2772      N2774   1.323       .  A
N2772      N2773   1.320       .  A
N2772     Mn2788   2.216       .  S
N2773      C2779   1.349       .  A
N2774      N2775   1.321       .  A
N2775      C2779   1.352       .  A
N2776      N2777   1.324       .  A
N2777      C2778   1.354       .  A
C2778      C3360   1.445       .  S
C2779      C3344   1.435       .  S
N2780      N2786   1.314       .  A
N2780      N2781   1.315       .  A
N2781      C2789   1.340       .  A
N2782      N2783   1.322       .  A
N2782      N2784   1.319       .  A
N2783      C2790   1.354       .  A
N2784      N2785   1.316       .  A
N2784     Mn2810   2.182       .  S
N2785      C2790   1.345       .  A
N2786      N2787   1.326       .  A
N2786     Mn2788   2.231       .  S
N2787      C2789   1.359       .  A
C2789      C3348   1.435       .  S
C2790      C3358   1.427       .  S
N2791      N2792   1.332       .  A
N2791      N2797   1.309       .  A
N2791     Mn2799   2.245       .  S
N2792      C2800   1.368       .  A
N2793      N2795   1.316       .  A
N2793      N2794   1.328       .  A
N2793     Mn2811   2.266       .  S
N2794      C2801   1.362       .  A
N2795      N2796   1.314       .  A
N2795     Mn2799   2.145       .  S
N2796      C2801   1.340       .  A
N2797      N2798   1.304       .  A
N2797     Mn2811   2.138       .  S
N2798      C2800   1.323       .  A
Mn2799    Cl2812   2.560       .  S
C2800      C3339   1.430       .  S
C2801      C3349   1.439       .  S
N2802      N2803   1.320       .  A
N2802      N2808   1.310       .  A
N2802     Mn2810   2.200       .  S
N2803      C2813   1.351       .  A
N2804      N2805   1.322       .  A
N2804      N2806   1.313       .  A
N2804     Mn2811   2.196       .  S
N2805      C2814   1.344   1_565  A
N2806      N2807   1.327   1_565  A
N2806     Mn2810   2.204       .  S
N2807      C2814   1.354       .  A
N2808      N2809   1.319       .  A
N2808     Mn2811   2.165       .  S
N2809      C2813   1.349       .  A
Mn2810    Cl2812   2.541       .  S
Mn2811    Cl2812   2.504       .  S
C2813      C3346   1.431       .  S
N2815      N2821   1.313       .  A
N2815     Mn2844   2.214       .  S
N2817      N2819   1.311       .  A
N2817      N2818   1.321       .  A
N2817     Mn2833   2.177       .  S
N2819     Mn2844   2.211       .  S
N2820      C2824   1.354       .  A
N2821      N2822   1.322       .  A
N2821     Mn2833   2.189       .  S
N2822      C2823   1.344       .  A
C2823      C3352   1.454       .  S
C2824      C3330   1.441       .  S
N2825      N2831   1.317       .  A
N2825      N2826   1.313       .  A
N2825     Mn2855   2.133       .  S
N2826      C2834   1.340       .  A
N2827      N2828   1.309       .  A
N2827      N2829   1.310       .  A
N2827     Mn2833   2.164       .  S
N2828      C2835   1.325       .  A
N2829      N2830   1.331       .  A
N2829     Mn2855   2.242       .  S
N2830      C2835   1.362       .  A
N2831      N2832   1.326       .  A
N2831     Mn2833   2.266       .  S
N2832      C2834   1.360       .  A
Mn2833    Cl2857   2.497       .  S
C2834      C3335   1.431       .  S
C2835      C3340   1.439       .  S
N2836      N2842   1.321       .  A
N2836     Mn2844   2.196       .  S
N2837      C2845   1.348       .  A
N2838      N2840   1.314       .  A
N2838      N2839   1.325       .  A
N2838     Mn2856   2.224       .  S
N2839      C2846   1.358       .  A
N2840     Mn2844   2.152       .  S
N2842      N2843   1.320       .  A
N2842     Mn2856   2.221       .  S
Mn2844    Cl2857   2.539       .  S
C2845      C3327   1.428       .  S
N2847      N2848   1.322       .  A
N2847      N2853   1.323       .  A
N2847     Mn2855   2.225       .  S
N2848      C2858   1.353       .  A
N2849      N2850   1.325       .  A
N2849      N2851   1.317       .  A
N2849     Mn2856   2.219       .  S
N2850      C2859   1.354       .  A
N2851      N2852   1.323       .  A
N2851     Mn2855   2.211       .  S
N2852      C2859   1.351       .  A
N2853      N2854   1.320       .  A
N2853     Mn2856   2.220       .  S
N2854      C2858   1.350       .  A
Mn2855    Cl2857   2.555       .  S
Mn2856    Cl2857   2.520       .  S
C2858      C3331   1.439       .  S
C2859      C3325   1.450       .  S
N2860      N2861   1.327       .  A
N2860      N2866   1.314       .  A
N2860     Mn2889   2.212       .  S
N2861      C2868   1.354       .  A
N2862      N2864   1.311       .  A
N2862      N2863   1.320       .  A
N2862     Mn2878   2.175       .  S
N2863      C2869   1.350       .  A
N2864      N2865   1.322       .  A
N2864     Mn2889   2.210       .  S
N2865      C2869   1.353       .  A
N2866      N2867   1.322       .  A
N2866     Mn2878   2.190       .  S
N2867      C2868   1.344       .  A
C2868      C3337   1.451       .  S
C2869      C3332   1.439       .  S
N2870      N2876   1.317       .  A
N2870      N2871   1.313       .  A
N2870     Mn2900   2.135       .  S
N2871      C2879   1.340       .  A
N2872      N2873   1.309       .  A
N2872      N2874   1.311       .  A
N2872     Mn2878   2.165       .  S
N2873      C2880   1.325       .  A
N2874      N2875   1.331       .  A
N2874     Mn2900   2.240       .  S
N2875      C2880   1.361       .  A
N2876      N2877   1.326       .  A
N2876     Mn2878   2.264       .  S
N2877      C2879   1.359       .  A
Mn2878    Cl2902   2.486       .  S
C2879      C3333   1.430       .  S
C2880      C3341   1.440       .  S
N2881      N2882   1.317       .  A
N2881      N2887   1.320       .  A
N2881     Mn2889   2.193       .  S
N2882      C2890   1.347       .  A
N2883      N2885   1.314       .  A
N2883      N2884   1.326       .  A
N2883     Mn2901   2.226       .  S
N2884      C2891   1.358       .  A
N2885      N2886   1.314       .  A
N2885     Mn2889   2.151       .  S
N2886      C2891   1.339       .  A
N2887      N2888   1.320       .  A
N2887     Mn2901   2.220       .  S
N2888      C2890   1.352       .  A
Mn2889    Cl2902   2.536       .  S
C2890      C3324   1.427       .  S
N2892      N2893   1.323       .  A
N2892      N2898   1.323       .  A
N2892     Mn2900   2.227       .  S
N2893      C2903   1.354       .  A
N2894      N2895   1.325       .  A
N2894      N2896   1.316       .  A
N2894     Mn2901   2.217       .  S
N2895      C2904   1.355       .  A
N2896      N2897   1.322       .  A
N2896     Mn2900   2.204       .  S
N2897      C2904   1.350       .  A
N2898      N2899   1.320       .  A
N2898     Mn2901   2.222       .  S
N2899      C2903   1.350       .  A
Mn2900    Cl2902   2.555       .  S
Mn2901    Cl2902   2.531       .  S
C2904      C3321   1.448       .  S
N2905      N2906   1.313       .  A
N2905      N2911   1.318       .  A
N2905     Mn2934   2.170       .  S
N2906      C2913   1.343       .  A
N2907      N2909   1.315       .  A
N2907      N2908   1.327       .  A
N2907     Mn2923   2.235       .  S
N2908      C2914   1.360       .  A
N2909      N2910   1.315       .  A
N2909     Mn2934   2.161       .  S
N2910      C2914   1.341       .  A
N2911      N2912   1.321       .  A
N2911     Mn2923   2.217       .  S
N2912      C2913   1.354       .  A
C2913      C3380   1.420       .  S
C2914      C3317   1.437       .  S
N2915      N2916   1.321   1_455  A
N2915     Mn2945   2.214       .  S
N2916      C2924   1.351       .  A
N2917      N2918   1.325       .  A
N2917     Mn2923   2.227       .  S
N2919      N2920   1.323       .  A
N2919     Mn2945   2.218   1_655  S
N2920      C2925   1.351       .  A
N2921      N2922   1.319       .  A
N2921     Mn2923   2.211       .  S
Mn2923    Cl2947   2.526       .  S
C2924      C3311   1.432       .  S
C2925      C3377   1.451       .  S
N2926      N2927   1.326       .  A
N2926      N2932   1.313       .  A
N2926     Mn2934   2.195       .  S
N2927      C2935   1.353       .  A
N2928      N2930   1.310       .  A
N2928     Mn2946   2.160       .  S
N2929      C2936   1.348       .  A
N2930      N2931   1.320       .  A
N2930     Mn2934   2.200       .  S
N2932      N2933   1.322       .  A
N2932     Mn2946   2.199       .  S
N2933      C2935   1.345       .  A
Mn2934    Cl2947   2.543       .  S
C2935      C3319   1.449       .  S
C2936      C3314   1.430   1_545  S
N2937      N2938   1.314   1_455  A
N2937     Mn2945   2.150       .  S
N2939      N2940   1.302       .  A
N2939     Mn2946   2.126       .  S
N2941      N2942   1.333   1_455  A
N2941     Mn2945   2.252       .  S
N2942      C2949   1.370   1_655  A
N2943     Mn2946   2.260       .  S
Mn2946    Cl2947   2.505       .  S
C2948      C3316   1.437   1_545  S
C2949      C3310   1.430   1_455  S
N2950      N2951   1.316       .  A
N2950      N2956   1.318       .  A
N2950     Mn2979   2.190       .  S
N2951      C2958   1.348       .  A
N2952      N2954   1.314       .  A
N2952      N2953   1.327       .  A
N2952     Mn2968   2.233       .  S
N2953      C2959   1.360       .  A
N2954      N2955   1.315       .  A
N2954     Mn2979   2.158       .  S
N2955      C2959   1.340       .  A
N2956      N2957   1.320       .  A
N2956     Mn2968   2.207       .  S
N2957      C2958   1.351       .  A
C2958      C3369   1.424       .  S
C2959      C3315   1.437       .  S
N2960      N2966   1.322       .  A
N2960      N2961   1.321       .  A
N2960     Mn2990   2.216       .  S
N2961      C2969   1.351       .  A
N2962      N2963   1.324       .  A
N2962      N2964   1.317       .  A
N2962     Mn2968   2.217       .  S
N2963      C2970   1.354       .  A
N2964      N2965   1.321       .  A
N2964     Mn2990   2.209       .  S
N2965      C2970   1.350       .  A
N2966      N2967   1.318       .  A
N2966     Mn2968   2.205       .  S
N2967      C2969   1.347       .  A
Mn2968    Cl2992   2.525       .  S
C2969      C3313   1.430       .  S
C2970      C3372   1.444       .  S
N2971      N2972   1.328       .  A
N2971      N2977   1.315       .  A
N2971     Mn2979   2.210       .  S
N2972      C2980   1.354       .  A
N2973      N2975   1.310       .  A
N2973      N2974   1.318       .  A
N2973     Mn2991   2.161       .  S
N2974      C2981   1.348       .  A
N2975      N2976   1.321       .  A
N2975     Mn2979   2.202       .  S
N2976      C2981   1.352       .  A
N2977      N2978   1.322       .  A
N2977     Mn2991   2.196       .  S
N2978      C2980   1.344       .  A
Mn2979    Cl2992   2.541       .  S
C2980      C3307   1.453       .  S
C2981      C3312   1.432       .  S
N2982      N2983   1.314       .  A
N2982      N2988   1.316       .  A
N2982     Mn2990   2.152       .  S
N2983      C2993   1.341       .  A
N2984      N2985   1.304       .  A
N2984      N2986   1.310       .  A
N2984     Mn2991   2.132       .  S
N2985      C2994   1.324       .  A
N2986      N2987   1.331       .  A
N2986     Mn2990   2.243       .  S
N2987      C2994   1.368       .  A
N2988      N2989   1.327       .  A
N2988     Mn2991   2.258       .  S
N2989      C2993   1.361       .  A
Mn2990    Cl2992   2.559       .  S
Mn2991    Cl2992   2.505       .  S
C2993      C3318   1.437       .  S
C2994      C3305   1.429       .  S
N2995      N3001   1.311       .  A
N2996      C3003   1.361   1_565  A
N2997      N2999   1.317       .  A
N2997      N2998   1.325       .  A
N2997     Mn3013   2.263       .  S
N2998      C3004   1.359   1_655  A
N3001      N3002   1.309       .  A
N3005      N3011   1.310       .  A
N3005      N3006   1.323       .  A
N3006      C3014   1.354       .  A
N3007      N3008   1.322       .  A
N3007      N3009   1.313       .  A
N3008      C3015   1.344       .  A
N3009      N3010   1.328       .  A
N3009     Mn3035   2.214       .  S
N3010      C3015   1.355       .  A
N3011      N3012   1.321       .  A
N3011     Mn3013   2.178       .  S
N3012      C3014   1.351       .  A
C3014      C3300   1.443       .  S
C3015      C3308   1.453       .  S
N3016      N3022   1.316   1_455  A
N3018      N3019   1.320       .  A
N3018     Mn3036   2.223       .  S
N3020      N3021   1.324       .  A
N3020     Mn3024   2.231       .  S
N3021      C3026   1.354       .  A
N3022      N3023   1.325       .  A
N3022     Mn3036   2.217       .  S
C3025      C3295   1.447       .  S
C3026      C3298   1.442       .  S
N3027      N3028   1.313       .  A
N3027      N3033   1.314       .  A
N3027     Mn3035   2.152       .  S
N3028      C3038   1.339       .  A
N3029      N3030   1.321       .  A
N3029      N3031   1.321       .  A
N3029     Mn3036   2.223       .  S
N3030      C3039   1.353       .  A
N3031      N3032   1.318       .  A
N3031     Mn3035   2.197       .  S
N3032      C3039   1.348       .  A
N3033      N3034   1.325       .  A
N3033     Mn3036   2.221       .  S
N3034      C3038   1.357       .  A
Mn3035    Cl3037   2.537       .  S
Mn3036    Cl3037   2.522       .  S
C3038      C3303   1.428       .  S
C3039      C3293   1.430       .  S
N3040      N3041   1.330       .  A
N3040      N3046   1.312       .  A
N3040     Mn3069   2.237       .  S
N3041      C3048   1.360       .  A
N3042      N3044   1.317       .  A
N3042      N3043   1.325       .  A
N3042     Mn3058   2.257       .  S
N3043      C3049   1.358       .  A
N3044      N3045   1.313       .  A
N3044     Mn3069   2.137       .  S
N3045      C3049   1.340       .  A
N3046      N3047   1.309       .  A
N3046     Mn3058   2.164       .  S
N3047      C3048   1.326       .  A
C3048      C3306   1.439       .  S
C3049      C3304   1.428       .  S
N3050      N3056   1.311       .  A
N3050      N3051   1.323       .  A
N3050     Mn3080   2.212       .  S
N3051      C3059   1.354       .  A
N3052      N3053   1.321       .  A
N3052      N3054   1.314       .  A
N3052     Mn3058   2.188       .  S
N3053      C3060   1.344       .  A
N3054      N3055   1.327       .  A
N3054     Mn3080   2.210       .  S
N3055      C3060   1.354       .  A
N3056      N3057   1.321       .  A
N3056     Mn3058   2.178       .  S
N3057      C3059   1.350       .  A
Mn3058    Cl3082   2.489       .  S
C3059      C3297   1.442       .  S
C3060      C3320   1.449       .  S
N3061      N3062   1.322       .  A
N3061      N3067   1.315       .  A
N3061     Mn3069   2.203       .  S
N3062      C3070   1.349       .  A
N3063      N3065   1.323       .  A
N3063      N3064   1.321       .  A
N3063     Mn3081   2.225       .  S
N3064      C3071   1.351       .  A
N3065      N3066   1.323       .  A
N3065     Mn3069   2.227       .  S
N3066      C3071   1.354       .  A
N3067      N3068   1.325       .  A
N3067     Mn3081   2.215       .  S
N3068      C3070   1.355       .  A
Mn3069    Cl3082   2.553       .  S
C3070      C3291   1.446       .  S
C3071      C3299   1.443       .  S
N3072      N3073   1.313       .  A
N3072      N3078   1.314       .  A
N3072     Mn3080   2.153       .  S
N3073      C3083   1.339       .  A
N3074      N3075   1.321       .  A
N3074      N3076   1.320       .  A
N3074     Mn3081   2.221       .  S
N3075      C3084   1.353       .  A
N3076      N3077   1.317       .  A
N3076     Mn3080   2.191       .  S
N3077      C3084   1.347       .  A
N3078      N3079   1.325       .  A
N3078     Mn3081   2.222       .  S
N3079      C3083   1.358       .  A
Mn3080    Cl3082   2.535       .  S
Mn3081    Cl3082   2.534       .  S
C3083      C3302   1.429       .  S
C3084      C3289   1.428       .  S
N3085      N3086   1.323       .  A
N3085      N3091   1.317       .  A
N3085     Mn3114   2.211       .  S
N3086      C3093   1.350       .  A
N3087      N3089   1.324       .  A
N3087      N3088   1.317       .  A
N3087     Mn3103   2.206       .  S
N3088      C3094   1.346       .  A
N3089      N3090   1.322       .  A
N3089     Mn3114   2.228       .  S
N3090      C3094   1.354       .  A
N3091      N3092   1.324       .  A
N3091     Mn3103   2.209       .  S
N3092      C3093   1.353       .  A
C3093      C3292   1.446       .  S
C3094      C3281   1.433       .  S
N3095      N3096   1.315       .  A
N3095     Mn3125   2.154       .  S
N3096      C3104   1.341       .  A
N3097      N3098   1.320       .  A
N3097     Mn3103   2.220       .  S
N3099      N3100   1.318       .  A
N3099     Mn3125   2.197       .  S
N3100      C3105   1.348       .  A
N3101      N3102   1.324       .  A
N3101     Mn3103   2.214       .  S
Mn3103    Cl3127   2.529       .  S
C3104      C3286   1.430       .  S
C3105      C3290   1.428       .  S
N3106      N3107   1.335       .  A
N3106      N3112   1.311       .  A
N3106     Mn3114   2.257       .  S
N3107      C3115   1.368       .  A
N3108      N3110   1.319       .  A
N3108      N3109   1.324       .  A
N3108     Mn3126   2.244       .  S
N3109      C3116   1.358       .  A
N3110      N3111   1.314       .  A
N3110     Mn3114   2.159       .  S
N3111      C3116   1.342       .  A
N3112      N3113   1.306       .  A
N3112     Mn3126   2.131       .  S
N3113      C3115   1.326       .  A
Mn3114    Cl3127   2.563       .  S
C3115      C3277   1.442       .  S
C3116      C3283   1.429       .  S
N3117      N3118   1.322       .  A
N3117     Mn3125   2.200       .  S
N3118      C3128   1.353       .  A
N3119      N3120   1.323       .  A
N3119     Mn3126   2.190       .  S
N3121      N3122   1.327       .  A
N3121     Mn3125   2.211       .  S
N3122      C3129   1.352       .  A
N3123      N3124   1.318       .  A
N3123     Mn3126   2.161       .  S
Mn3126    Cl3127   2.498       .  S
C3128      C3279   1.432       .  S
C3129      C3288   1.453       .  S
N3130      N3131   1.318       .  A
N3130      N3136   1.321       .  A
N3130     Mn3159   2.197       .  S
N3131      C3138   1.348       .  A
N3132      N3134   1.313       .  A
N3132      N3133   1.325       .  A
N3132     Mn3148   2.217       .  S
N3133      C3139   1.356       .  A
N3134      N3135   1.315       .  A
N3134     Mn3159   2.153       .  S
N3135      C3139   1.340       .  A
N3136      N3137   1.319       .  A
N3136     Mn3148   2.220       .  S
N3137      C3138   1.352       .  A
C3138      C3323   1.428       .  S
N3140      N3141   1.322       .  A
N3140     Mn3170   2.225       .  S
N3141      C3149   1.353       .  A
N3142      N3143   1.324       .  A
N3142     Mn3148   2.214       .  S
N3144      N3145   1.322       .  A
N3144     Mn3170   2.209       .  S
N3145      C3150   1.350       .  A
N3146      N3147   1.319       .  A
N3146     Mn3148   2.211       .  S
Mn3148    Cl3172   2.534       .  S
C3150      C3322   1.448       .  S
N3151      N3152   1.328       .  A
N3151      N3157   1.318       .  A
N3151     Mn3159   2.215       .  S
N3152      C3160   1.353       .  A
N3153      N3155   1.309       .  A
N3153      N3154   1.319       .  A
N3153     Mn3171   2.168       .  S
N3154      C3161   1.348       .  A
N3155      N3156   1.322       .  A
N3155     Mn3159   2.201       .  S
N3156      C3161   1.353       .  A
N3157      N3158   1.324       .  A
N3157     Mn3171   2.193       .  S
N3158      C3160   1.342       .  A
Mn3159    Cl3172   2.537       .  S
C3160      C3268   1.456       .  S
C3161      C3272   1.436       .  S
N3162      N3163   1.314       .  A
N3162     Mn3170   2.163       .  S
N3163      C3173   1.342       .  A
N3164      N3165   1.306       .  A
N3164     Mn3171   2.130       .  S
N3166      N3167   1.334       .  A
N3166     Mn3170   2.248       .  S
N3167      C3174   1.367       .  A
N3168      N3169   1.325       .  A
N3168     Mn3171   2.244       .  S
Mn3171    Cl3172   2.504       .  S
C3173      C3275   1.430       .  S
C3174      C3287   1.438       .  S
N3175      N3176   1.323       .  A
N3175      N3181   1.317       .  A
N3175     Mn3204   2.213       .  S
N3176      C3183   1.351       .  A
N3177      N3179   1.323       .  A
N3177      N3178   1.318       .  A
N3177     Mn3193   2.206       .  S
N3178      C3184   1.346       .  A
N3179      N3180   1.322       .  A
N3179     Mn3204   2.226       .  S
N3180      C3184   1.354       .  A
N3181      N3182   1.324       .  A
N3181     Mn3193   2.209       .  S
N3182      C3183   1.353       .  A
C3183      C3296   1.447       .  S
C3184      C3280   1.432       .  S
N3185      N3191   1.312       .  A
N3185      N3186   1.315       .  A
N3185     Mn3215   2.153       .  S
N3186      C3194   1.341       .  A
N3187      N3188   1.320       .  A
N3187      N3189   1.321       .  A
N3187     Mn3193   2.220       .  S
N3188      C3195   1.352       .  A
N3189      N3190   1.319       .  A
N3189     Mn3215   2.200       .  S
N3190      C3195   1.349       .  A
N3191      N3192   1.325       .  A
N3191     Mn3193   2.214       .  S
N3192      C3194   1.356       .  A
Mn3193    Cl3217   2.529       .  S
C3194      C3284   1.430       .  S
C3195      C3294   1.430       .  S
N3196      N3197   1.335       .  A
N3196      N3202   1.310       .  A
N3196     Mn3204   2.256       .  S
N3197      C3205   1.368   1_565  A
N3198      N3200   1.319       .  A
N3198      N3199   1.324       .  A
N3198     Mn3216   2.243       .  S
N3199      C3206   1.357       .  A
N3200      N3201   1.314       .  A
N3201      C3206   1.342       .  A
N3202      N3203   1.306   1_565  A
N3203      C3205   1.326       .  A
Mn3204    Cl3217   2.564       .  S
C3206      C3285   1.429       .  S
N3207      N3208   1.323       .  A
N3207      N3213   1.309       .  A
N3208      C3218   1.353       .  A
N3209      N3210   1.323       .  A
N3209      N3211   1.318       .  A
N3210      C3219   1.341       .  A
N3211      N3212   1.327       .  A
N3211     Mn3215   2.213       .  S
N3212      C3219   1.352       .  A
N3213      N3214   1.318       .  A
N3213     Mn3216   2.160       .  S
N3214      C3218   1.346       .  A
Mn3215    Cl3217   2.539       .  S
C3218      C3282   1.433       .  S
C3219      C3265   1.454       .  S
N3220      N3221   1.318       .  A
N3220      N3226   1.321       .  A
N3220     Mn3249   2.197       .  S
N3221      C3228   1.348       .  A
N3222      N3224   1.313       .  A
N3222      N3223   1.325       .  A
N3222     Mn3238   2.218       .  S
N3223      C3229   1.357       .  A
N3224      N3225   1.315       .  A
N3224     Mn3249   2.153       .  S
N3225      C3229   1.340       .  A
N3226      N3227   1.320       .  A
N3226     Mn3238   2.221       .  S
N3227      C3228   1.352       .  A
C3228      C3328   1.428       .  S
C3229      C3276   1.431       .  S
N3230      N3236   1.324       .  A
N3230      N3231   1.322       .  A
N3230     Mn3260   2.226       .  S
N3231      C3239   1.353       .  A
N3232      N3233   1.325       .  A
N3232      N3234   1.318       .  A
N3232     Mn3238   2.217       .  S
N3233      C3240   1.354       .  A
N3234      N3235   1.323       .  A
N3234     Mn3260   2.214       .  S
N3235      C3240   1.350       .  A
N3236      N3237   1.319       .  A
N3236     Mn3238   2.213       .  S
N3237      C3239   1.348       .  A
Mn3238    Cl3262   2.526       .  S
C3239      C3271   1.436       .  S
C3240      C3326   1.449       .  S
N3241      N3242   1.328       .  A
N3241      N3247   1.317       .  A
N3241     Mn3249   2.213       .  S
N3242      C3250   1.353       .  A
N3243      N3245   1.308       .  A
N3243      N3244   1.319       .  A
N3243     Mn3261   2.165       .  S
N3244      C3251   1.348       .  A
N3245      N3246   1.322       .  A
N3245     Mn3249   2.200       .  S
N3246      C3251   1.353       .  A
N3247      N3248   1.324       .  A
N3247     Mn3261   2.194       .  S
N3248      C3250   1.342       .  A
Mn3249    Cl3262   2.543       .  S
C3250      C3278   1.457       .  S
C3251      C3270   1.435       .  S
N3252      N3253   1.314       .  A
N3252      N3258   1.319       .  A
N3252     Mn3260   2.163       .  S
N3253      C3263   1.342       .  A
N3254      N3255   1.305       .  A
N3254      N3256   1.310       .  A
N3254     Mn3261   2.127       .  S
N3255      C3264   1.326       .  A
N3256      N3257   1.335       .  A
N3256     Mn3260   2.251       .  S
N3257      C3264   1.368       .  A
N3258      N3259   1.324       .  A
N3258     Mn3261   2.243       .  S
N3259      C3263   1.358       .  A
Mn3260    Cl3262   2.557       .  S
Mn3261    Cl3262   2.512       .  S
C3263      C3274   1.430       .  S
C3264      C3266   1.438       .  S
C3265      C3266   1.216       .  T
C3267      C3268   1.217       .  T
C3269      C3270   1.205       .  T
C3271      C3272   1.206       .  T
C3273      C3274   1.203       .  T
C3275      C3276   1.203       .  T
C3277      C3278   1.217       .  T
C3279      C3280   1.204       .  T
C3281      C3282   1.204       .  T
C3283      C3284   1.203       .  T
C3285      C3286   1.203       .  T
C3289      C3290   1.201       .  T
C3291      C3292   1.212       .  T
C3293      C3294   1.202       .  T
C3295      C3296   1.212       .  T
C3297      C3298   1.210       .  T
C3299      C3300   1.210       .  T
C3301      C3302   1.202       .  T
C3303      C3304   1.202       .  T
C3305      C3306   1.211       .  T
C3307      C3308   1.217       .  T
C3311      C3312   1.203       .  T
C3313      C3314   1.202       .  T
C3315      C3316   1.207       .  T
C3317      C3318   1.207       .  T
C3319      C3320   1.214       .  T
C3321      C3322   1.213       .  T
C3323      C3324   1.201       .  T
C3325      C3326   1.214       .  T
C3327      C3328   1.201       .  T
C3329      C3330   1.209       .  T
C3331      C3332   1.208       .  T
C3333      C3334   1.203       .  T
C3335      C3336   1.204       .  T
C3337      C3338   1.215   1_556  T
C3339      C3340   1.212   1_554  T
C3341      C3342   1.211   1_556  T
C3343      C3344   1.205       .  T
C3345      C3346   1.203       .  T
C3347      C3348   1.206       .  T
C3349      C3350   1.208       .  T
C3351      C3352   1.217   1_554  T
C3353      C3354   1.200       .  T
C3355      C3356   1.217       .  T
C3357      C3358   1.201       .  T
C3359      C3360   1.211       .  T
C3361      C3362   1.217       .  T
C3363      C3364   1.208       .  T
C3365      C3366   1.200       .  T
C3367      C3368   1.202       .  T
C3369      C3370   1.199       .  T
C3371      C3372   1.210       .  T
C3373      C3374   1.220       .  T
C3375      C3376   1.222       .  T
C3377      C3378   1.215       .  T
C3379      C3380   1.197       .  T
C3381      C3382   1.215       .  T
C3383      C3384   1.209       .  T
C3385      C3386   1.208       .  T
C3387      C3388   1.208       .  T
C3389      C3390   1.213       .  T
C3391      C3392   1.212       .  T
