geometry optimzed in LAMMPS
_audit_creation_date              2020-11-30 
_audit_creation_method            'lammps2cif' 
_symmetry_space_group_name_H-M    'P1' 
_symmetry_Int_Tables_number       1 
_symmetry_cell_setting            triclinic 
loop_ 
_symmetry_equiv_pos_as_xyz 
  x,y,z 
_cell_length_a                    50.19155808 
_cell_length_b                    50.2636367639479 
_cell_length_c                    50.172501522757614 
_cell_angle_alpha                 90.0306544527204 
_cell_angle_beta                  89.98528197669664 
_cell_angle_gamma                 90.02885459182548 
loop_ 
_atom_site_label 
_atom_site_type_symbol 
_atom_site_fract_x 
_atom_site_fract_y 
_atom_site_fract_z 
_atom_site_charge 
N1          N  0.74863636  0.90313545  0.40397237     0.00200
C2          C  0.74055978  0.90586031  0.37837885     0.02800
C3          C  0.74349927  0.88182100  0.36517509    -0.20100
C4          C  0.75358833  0.86392832  0.38347365    -0.20300
C5          C  0.75668119  0.87765231  0.40722728     0.02700
H6          H  0.73846511  0.87755370  0.34464456     0.16500
H7          H  0.75860080  0.84334678  0.37963134     0.16500
N8          N  0.74980854  0.90434627  0.58985862     0.00200
C9          C  0.74153792  0.90765493  0.61529008     0.02800
C10         C  0.74431876  0.88391598  0.62903315    -0.20100
C11         C  0.75447652  0.86558140  0.61114984    -0.20300
C12         C  0.75777910  0.87879333  0.58713760     0.02700
H13         H  0.73906079  0.88012100  0.64959946     0.16500
H14         H  0.75932749  0.84504825  0.61540959     0.16500
N15         N  0.75081366  0.08702149  0.40216665     0.00200
C16         C  0.74281755  0.08380671  0.37662242     0.02800
C17         C  0.74648072  0.10737842  0.36277214    -0.20100
C18         C  0.75686910  0.12552252  0.38064196    -0.20300
C19         C  0.75939200  0.11239207  0.40476635     0.02700
H20         H  0.74166115  0.11121750  0.34211237     0.16500
H21         H  0.76235203  0.14589161  0.37632474     0.16500
N22         N  0.75078581  0.08958438  0.58816303     0.00200
C23         C  0.74234440  0.08706147  0.61363426     0.02800
C24         C  0.74467897  0.11131135  0.62657164    -0.20100
C25         C  0.75470484  0.12915225  0.60815026    -0.20300
C26         C  0.75837613  0.11515286  0.58463497     0.02700
H27         H  0.73915465  0.11577312  0.64693532     0.16500
H28         H  0.75919890  0.14990321  0.61173486     0.16500
O29         O  0.72843249  0.02343193  0.52341683    -0.70700
O30         O  0.72725819  0.96917360  0.46984092    -0.70800
O31         O  0.72775747  0.96960496  0.52382562    -0.70800
O32         O  0.72794597  0.02300216  0.46942838    -0.70900
O33         O  0.77244932  0.02246556  0.46902012    -0.70800
O34         O  0.77226507  0.96909010  0.52342745    -0.70800
O35         O  0.77176145  0.96863017  0.46945507    -0.70800
O36         O  0.77293844  0.02292658  0.52302903    -0.70800
Ni37       Ni  0.72624765  0.99632556  0.49665122     1.25400
Ni38       Ni  0.77395718  0.99576081  0.49622522     1.25400
C39         C  0.75086203  0.03200428  0.53196383     0.91400
C40         C  0.74932236  0.96010643  0.46086544     0.91400
C41         C  0.74998491  0.96065117  0.53247946     0.91400
C42         C  0.75022559  0.03136942  0.46029314     0.91600
N43         N  0.90679023  0.74505238  0.40558420     0.00200
C44         C  0.90981896  0.73642260  0.38023832     0.02800
C45         C  0.88622212  0.74001746  0.36638113    -0.20100
C46         C  0.86824079  0.75103670  0.38408972    -0.20300
C47         C  0.88150555  0.75401610  0.40812685     0.02700
H48         H  0.88230006  0.73482217  0.34582080     0.16500
H49         H  0.84790768  0.75666870  0.37969773     0.16500
N50         N  0.90698979  0.74766712  0.59031640     0.00200
C51         C  0.90977077  0.73921221  0.61574264     0.02800
C52         C  0.88583260  0.74225265  0.62915444    -0.20100
C53         C  0.86790955  0.75272310  0.61107402    -0.20300
C54         C  0.88154180  0.75592954  0.58726944     0.02700
H55         H  0.88160518  0.73690466  0.64960958     0.16500
H56         H  0.84732748  0.75774162  0.61504565     0.16500
N57         N  0.09251137  0.74359722  0.40522204     0.00200
C58         C  0.08974724  0.73532213  0.37970530     0.02800
C59         C  0.11344767  0.73927780  0.36611458    -0.20100
C60         C  0.13116511  0.75027942  0.38410203    -0.20300
C61         C  0.11766002  0.75287382  0.40805917     0.02700
H62         H  0.11758395  0.73444068  0.34550901     0.16500
H63         H  0.15145143  0.75624749  0.37990743     0.16500
N64         N  0.09190362  0.74671115  0.59100543     0.00200
C65         C  0.08902700  0.73859737  0.61651754     0.02800
C66         C  0.11257793  0.74287969  0.63028394    -0.20100
C67         C  0.13036623  0.75381370  0.61232043    -0.20300
C68         C  0.11700487  0.75603069  0.58826768     0.02700
H69         H  0.11662023  0.73816265  0.65092881     0.16500
H70         H  0.15063857  0.75983502  0.61651178     0.16500
O71         O  0.02713526  0.76734313  0.52440642    -0.70700
O72         O  0.97322926  0.76723479  0.47048881    -0.70800
O73         O  0.97324793  0.76834908  0.52438626    -0.70800
O74         O  0.02716824  0.76622371  0.47048652    -0.70900
O75         O  0.02638143  0.72179155  0.47134432    -0.70800
O76         O  0.97243129  0.72391408  0.52526185    -0.70800
O77         O  0.97240495  0.72280191  0.47135981    -0.70800
O78         O  0.02633061  0.72290965  0.52531812    -0.70800
Ni79       Ni  0.00023471  0.76888391  0.49740080     1.25400
Ni80       Ni  0.99936275  0.72124862  0.49834550     1.25400
C81         C  0.03547818  0.74516074  0.53367905     0.91400
C82         C  0.96396462  0.74500531  0.46221031     0.91400
C83         C  0.96405318  0.74646607  0.53359504     0.91400
C84         C  0.03557293  0.74368678  0.46214116     0.91600
N85         N  0.25100900  0.90239584  0.40500063     0.00200
C86         C  0.25918579  0.90492990  0.37943710     0.02800
C87         C  0.25532794  0.88108979  0.36609824    -0.20100
C88         C  0.24458242  0.86349798  0.38432078    -0.20300
C89         C  0.24202894  0.87722042  0.40813723     0.02700
H90         H  0.26013765  0.87675317  0.34552759     0.16500
H91         H  0.23879823  0.84312763  0.38040357     0.16500
N92         N  0.25040957  0.90288022  0.59008610     0.00200
C93         C  0.25906414  0.90591195  0.61539410     0.02800
C94         C  0.25554483  0.88235175  0.62927412    -0.20100
C95         C  0.24447688  0.86438091  0.61159097    -0.20300
C96         C  0.24141134  0.87766182  0.58758523     0.02700
H97         H  0.26074649  0.87848332  0.64983800     0.16500
H98         H  0.23882823  0.84407485  0.61599097     0.16500
N99         N  0.25139037  0.08723838  0.40413297     0.00200
C100        C  0.24277775  0.11263078  0.40657576     0.02800
C101        C  0.24596359  0.12574729  0.38250134    -0.20100
C102        C  0.25669931  0.10757503  0.36485604    -0.20300
C103        C  0.25991503  0.08399107  0.37875972     0.02700
H104        H  0.24060209  0.14610517  0.37801840     0.16500
H105        H  0.26190980  0.11134440  0.34427322     0.16500
N106        N  0.24974599  0.08933917  0.58860380     0.00200
C107        C  0.24131195  0.11469172  0.58541738     0.02800
C108        C  0.24448968  0.12846374  0.60914886    -0.20100
C109        C  0.25504711  0.11070619  0.62734233    -0.20300
C110        C  0.25818039  0.08674399  0.61405798     0.02700
H111        H  0.23930008  0.14899708  0.61302025     0.16500
H112        H  0.26029143  0.11501073  0.64781321     0.16500
O113        O  0.27283964  0.02248543  0.52446359    -0.70700
O114        O  0.27363764  0.96836224  0.47070393    -0.70800
O115        O  0.27342634  0.02223382  0.47054283    -0.70800
O116        O  0.27307154  0.96855671  0.52464755    -0.70900
O117        O  0.22856199  0.96836622  0.52419847    -0.70800
O118        O  0.22891723  0.02202878  0.47009638    -0.70800
O119        O  0.22912894  0.96818282  0.47027844    -0.70800
O120        O  0.22833191  0.02227888  0.52399118    -0.70800
Ni121      Ni  0.27485111  0.99541115  0.49762034     1.25400
Ni122      Ni  0.22713640  0.99520028  0.49713787     1.25400
C123        C  0.25045003  0.03130277  0.53287230     0.91400
C124        C  0.25149704  0.95948155  0.46171411     0.91400
C125        C  0.25122500  0.03088128  0.46151324     0.91400
C126        C  0.25075885  0.95966627  0.53317882     0.91600
N127        N  0.40734449  0.90174780  0.24546208     0.00200
C128        C  0.41025123  0.87627717  0.23731658     0.02800
C129        C  0.38638967  0.86278105  0.24050434    -0.20100
C130        C  0.36836668  0.88084004  0.25079940    -0.20300
C131        C  0.38189188  0.90469520  0.25375313     0.02700
H132        H  0.38231340  0.84224971  0.23544921     0.16500
H133        H  0.34783704  0.87679900  0.25599834     0.16500
N134        N  0.59265253  0.90190766  0.24511842     0.00200
C135        C  0.58981183  0.87665268  0.23631724     0.02800
C136        C  0.61370919  0.86316827  0.23920533    -0.20100
C137        C  0.63167652  0.88104648  0.24996100    -0.20300
C138        C  0.61807958  0.90477348  0.25348533     0.02700
H139        H  0.61784306  0.84277778  0.23365888     0.16500
H140        H  0.65223372  0.87698804  0.25500698     0.16500
N141        N  0.40697993  0.08645529  0.24480082     0.00200
C142        C  0.40960404  0.11179711  0.23616367     0.02800
C143        C  0.38560204  0.12507188  0.23913706    -0.20100
C144        C  0.36780610  0.10704415  0.24985322    -0.20300
C145        C  0.38157971  0.08340782  0.25325376     0.02700
H146        H  0.38132235  0.14547761  0.23378754     0.16500
H147        H  0.34726235  0.11098787  0.25505840     0.16500
N148        N  0.59235580  0.08732451  0.24503735     0.00200
C149        C  0.58921020  0.11285137  0.23709796     0.02800
C150        C  0.61304684  0.12642504  0.24019427    -0.20100
C151        C  0.63126694  0.10838405  0.25018933    -0.20300
C152        C  0.61791777  0.08442668  0.25308062     0.02700
H153        H  0.61696899  0.14702240  0.23530776     0.16500
H154        H  0.65180692  0.11251362  0.25526916     0.16500
O155        O  0.52700573  0.02128327  0.22293319    -0.70700
O156        O  0.47318231  0.96726830  0.22294091    -0.70800
O157        O  0.47306769  0.02113613  0.22281043    -0.70800
O158        O  0.52710232  0.96742504  0.22307416    -0.70900
O159        O  0.52698342  0.96753916  0.26760471    -0.70800
O160        O  0.47297270  0.02127817  0.26733794    -0.70800
O161        O  0.47305984  0.96742257  0.26746790    -0.70800
O162        O  0.52691715  0.02141110  0.26745990    -0.70800
Ni163      Ni  0.50009794  0.99427336  0.22133644     1.25400
Ni164      Ni  0.49998282  0.99441785  0.26907157     1.25400
C165        C  0.53571855  0.03015956  0.24518936     0.91400
C166        C  0.46433862  0.95855938  0.24520868     0.91400
C167        C  0.46421341  0.02995637  0.24503524     0.91400
C168        C  0.53581637  0.95871419  0.24537812     0.91600
N169        N  0.40662173  0.74657473  0.90188075     0.00200
C170        C  0.40931819  0.75572566  0.87666530     0.02800
C171        C  0.38513745  0.75370005  0.86351946    -0.20100
C172        C  0.36718375  0.74304007  0.88148943    -0.20300
C173        C  0.38103016  0.73869447  0.90498556     0.05100
H174        H  0.38084811  0.75967266  0.84325431     0.16500
H175        H  0.34647839  0.73849843  0.87757036     0.16500
N176        N  0.59230691  0.74573073  0.90125497     0.00200
C177        C  0.58897168  0.75342043  0.87564426     0.02800
C178        C  0.61239352  0.74926409  0.86162338    -0.20100
C179        C  0.63057478  0.73887711  0.87946948    -0.20300
C180        C  0.61761897  0.73683467  0.90376938     0.02700
H181        H  0.61611149  0.75374411  0.84086251     0.16500
H182        H  0.65085617  0.73309187  0.87502057     0.16500
N183        N  0.40726770  0.74529916  0.08708689     0.00200
C184        C  0.41016712  0.75376157  0.11249293     0.02800
C185        C  0.38635687  0.75058650  0.12610745    -0.20100
C186        C  0.36836265  0.73998060  0.10819257    -0.20300
C187        C  0.38185616  0.73684918  0.08430992     0.02700
H188        H  0.38229906  0.75584782  0.14662480     0.16500
H189        H  0.34785416  0.73476642  0.11232097     0.16500
N190        N  0.59315071  0.74894266  0.08581853     0.00200
C191        C  0.59022200  0.75742957  0.11121152     0.02800
C192        C  0.61432746  0.75537539  0.12448500    -0.20100
C193        C  0.63250874  0.74539724  0.10636115    -0.20300
C194        C  0.61883266  0.74148218  0.08269373     0.02700
H195        H  0.61840019  0.76085303  0.14494237     0.16500
H196        H  0.65322780  0.74093551  0.11027725     0.16500
O197        O  0.52638848  0.76902897  0.02086802    -0.70700
O198        O  0.47241320  0.76795025  0.96707039    -0.70800
O199        O  0.47244295  0.76817037  0.02101356    -0.70800
O200        O  0.52637308  0.76873291  0.96697577    -0.70900
O201        O  0.52699442  0.72429167  0.96720699    -0.70800
O202        O  0.47307590  0.72372963  0.02117671    -0.70800
O203        O  0.47301590  0.72350691  0.96720737    -0.70800
O204        O  0.52703111  0.72458399  0.02109238    -0.70800
Ni205      Ni  0.49936946  0.77006948  0.99397382     1.25400
Ni206      Ni  0.50004306  0.72242558  0.99417630     1.25400
C207        C  0.53556307  0.74699217  0.02968277     0.91400
C208        C  0.46391677  0.74558083  0.95836938     0.91400
C209        C  0.46398286  0.74585358  0.02990288     0.91400
C210        C  0.53553854  0.74658576  0.95836379     0.91600
N211        N  0.40743624  0.90375523  0.74352116     0.00200
C212        C  0.41029942  0.87834349  0.75183478     0.02800
C213        C  0.38647533  0.86480477  0.74842546    -0.20100
C214        C  0.36852913  0.88280352  0.73790223    -0.20300
C215        C  0.38206264  0.90664685  0.73503169     0.02700
H216        H  0.38235002  0.84430052  0.75353184     0.16500
H217        H  0.34801796  0.87878412  0.73261754     0.16500
N218        N  0.59134441  0.90449684  0.74363030     0.00200
C219        C  0.58858793  0.87888088  0.75151576     0.02800
C220        C  0.61249567  0.86558741  0.74782688    -0.20100
C221        C  0.63033378  0.88387455  0.73755716    -0.20300
C222        C  0.61671666  0.90770759  0.73509815     0.02700
H223        H  0.61675759  0.84502812  0.75256151     0.16500
H224        H  0.65083487  0.88002401  0.73211411     0.16500
N225        N  0.40660538  0.09020601  0.74492253     0.00200
C226        C  0.40941766  0.11562884  0.75324058     0.02800
C227        C  0.38563603  0.12917874  0.74975184    -0.20100
C228        C  0.36775097  0.11120593  0.73908745    -0.20300
C229        C  0.38129391  0.08736765  0.73623793     0.02700
H230        H  0.38153043  0.14970037  0.75481226     0.16500
H231        H  0.34730073  0.11526944  0.73362279     0.16500
N232        N  0.59103951  0.09057543  0.74421418     0.00200
C233        C  0.58798600  0.11604822  0.75230790     0.02800
C234        C  0.61154764  0.12988012  0.74835854    -0.20100
C235        C  0.62953807  0.11203959  0.73766422    -0.20300
C236        C  0.61630297  0.08797190  0.73524890     0.02700
H237        H  0.61547116  0.15049870  0.75317260     0.16500
H238        H  0.64987737  0.11632177  0.73193482     0.16500
O239        O  0.47188816  0.02400305  0.76696648    -0.70700
O240        O  0.52595521  0.97029833  0.76664876    -0.70800
O241        O  0.52582203  0.02420834  0.76710551    -0.70800
O242        O  0.47211217  0.97009063  0.76646101    -0.70900
O243        O  0.47224260  0.97044790  0.72193290    -0.70800
O244        O  0.52593080  0.02455216  0.72258070    -0.70800
O245        O  0.52610673  0.97065222  0.72212342    -0.70800
O246        O  0.47200025  0.02437972  0.72244378    -0.70800
Ni247      Ni  0.49893375  0.99714597  0.76839507     1.25400
Ni248      Ni  0.49907076  0.99753157  0.72066382     1.25400
C249        C  0.46317790  0.03299403  0.74476999     0.91400
C250        C  0.53476167  0.96164653  0.74434346     0.91400
C251        C  0.53462710  0.03319789  0.74493238     0.91400
C252        C  0.46353164  0.96136403  0.74409753     0.91600
N253        N  0.40638443  0.24597934  0.90399917     0.00200
C254        C  0.38091311  0.25421227  0.90697970     0.02800
C255        C  0.36739359  0.25125125  0.88309212    -0.20100
C256        C  0.38541318  0.24100292  0.86498843    -0.20300
C257        C  0.40929241  0.23785232  0.87846891     0.02700
H258        H  0.34686577  0.25642193  0.87905046     0.16500
H259        H  0.38133081  0.23600166  0.84441237     0.16500
N260        N  0.59140303  0.24582761  0.90360442     0.00200
C261        C  0.61669968  0.25456071  0.90662181     0.02800
C262        C  0.63034756  0.25168275  0.88278902    -0.20100
C263        C  0.61253987  0.24101303  0.86467792    -0.20300
C264        C  0.58867497  0.23752887  0.87811719     0.02700
H265        H  0.65080720  0.25718272  0.87879751     0.16500
H266        H  0.61673213  0.23599743  0.84412540     0.16500
N267        N  0.40666864  0.24613706  0.08942555     0.00200
C268        C  0.40953227  0.23761296  0.11482415     0.02800
C269        C  0.38556901  0.24043593  0.12824832    -0.20100
C270        C  0.36755960  0.25085524  0.11022098    -0.20300
C271        C  0.38116371  0.25425138  0.08643489     0.02700
H272        H  0.38140824  0.23505074  0.14870702     0.16500
H273        H  0.34696531  0.25579296  0.11423443     0.16500
N274        N  0.59099770  0.24731941  0.09007220     0.00200
C275        C  0.58806287  0.23959766  0.11571189     0.02800
C276        C  0.61160469  0.24403564  0.12944750    -0.20100
C277        C  0.62944356  0.25464763  0.11136928    -0.20300
C278        C  0.61613599  0.25652420  0.08726546     0.02700
H279        H  0.61563207  0.23958346  0.15015311     0.16500
H280        H  0.64971968  0.26068277  0.11552023     0.16500
O281        O  0.47212053  0.22393053  0.02375130    -0.70700
O282        O  0.52587986  0.22329727  0.96964802    -0.70800
O283        O  0.52600675  0.22353464  0.02364797    -0.70800
O284        O  0.47196735  0.22367242  0.96979224    -0.70900
O285        O  0.47228326  0.26811831  0.96960404    -0.70800
O286        O  0.52630312  0.26798164  0.02345738    -0.70800
O287        O  0.52618008  0.26774700  0.96949070    -0.70800
O288        O  0.47241862  0.26838004  0.02357037    -0.70800
Ni289      Ni  0.49898674  0.22200608  0.99671303     1.25400
Ni290      Ni  0.49931562  0.26965717  0.99652064     1.25400
C291        C  0.46352931  0.24624998  0.03248352     0.91400
C292        C  0.53474962  0.24543445  0.96072848     0.91400
C293        C  0.53488485  0.24574672  0.03239413     0.91400
C294        C  0.46332988  0.24591145  0.96091700     0.91600
N295        N  0.25001156  0.40363887  0.90406233     0.00200
C296        C  0.24150826  0.40651115  0.87865405     0.02800
C297        C  0.24457597  0.38265706  0.86514295    -0.20100
C298        C  0.25512215  0.36470259  0.88311825    -0.20300
C299        C  0.25834787  0.37822994  0.90696015     0.02700
H300        H  0.23925883  0.37852728  0.84465642     0.16500
H301        H  0.26022884  0.34418717  0.87905065     0.16500
N302        N  0.24997909  0.58771374  0.90305239     0.00200
C303        C  0.24113121  0.58483580  0.87776160     0.02800
C304        C  0.24392784  0.60869475  0.86421794    -0.20100
C305        C  0.25470278  0.62667035  0.88203449    -0.20300
C306        C  0.25830850  0.61314018  0.90580128     0.02700
H307        H  0.23831448  0.61280115  0.84381138     0.16500
H308        H  0.25970448  0.64720256  0.87791249     0.16500
N309        N  0.25145273  0.40388697  0.08966909     0.00200
C310        C  0.24384575  0.40707005  0.11531319     0.02800
C311        C  0.24734302  0.38339977  0.12901257    -0.20100
C312        C  0.25724745  0.36520584  0.11089357    -0.20300
C313        C  0.25966394  0.37843920  0.08679839     0.02700
H314        H  0.24269988  0.37954106  0.14971365     0.16500
H315        H  0.26249257  0.34474249  0.11502599     0.16500
N316        N  0.25123104  0.58888572  0.08917800     0.00200
C317        C  0.24347105  0.58606338  0.11483159     0.02800
C318        C  0.24696873  0.60994077  0.12820175    -0.20100
C319        C  0.25704424  0.62785038  0.10987295    -0.20300
C320        C  0.25957829  0.61425362  0.08598102     0.02700
H321        H  0.24228068  0.61410343  0.14883618     0.16500
H322        H  0.26238724  0.64834716  0.11375499     0.16500
O323        O  0.22806725  0.46914265  0.96991821    -0.70700
O324        O  0.22827646  0.52319608  0.02365334    -0.70800
O325        O  0.22814395  0.52294423  0.96966641    -0.70800
O326        O  0.22822434  0.46932531  0.02386865    -0.70900
O327        O  0.27273480  0.46931050  0.02370039    -0.70800
O328        O  0.27265443  0.52292877  0.96952853    -0.70800
O329        O  0.27278960  0.52316537  0.02351816    -0.70800
O330        O  0.27258238  0.46911764  0.96976736    -0.70800
Ni331      Ni  0.22657394  0.49616107  0.99679093     1.25400
Ni332      Ni  0.27429340  0.49613703  0.99663425     1.25400
C333        C  0.25028693  0.46035797  0.96106517     0.91400
C334        C  0.25056660  0.53197056  0.03235208     0.91400
C335        C  0.25038177  0.53159497  0.96069387     0.91400
C336        C  0.25050616  0.46054333  0.03257240     0.91600
N337        N  0.90570018  0.40248824  0.74412774     0.00200
C338        C  0.88047255  0.40531174  0.75316158     0.02800
C339        C  0.86684862  0.38152700  0.75004776    -0.20100
C340        C  0.88458035  0.36366156  0.73890218    -0.20300
C341        C  0.90838522  0.37718328  0.73538577     0.02700
H342        H  0.84645636  0.37739030  0.75569381     0.16500
H343        H  0.88037380  0.34321406  0.73361661     0.16500
N344        N  0.90591972  0.58711249  0.74398593     0.00200
C345        C  0.88069869  0.58423926  0.75296018     0.02800
C346        C  0.86702353  0.60798044  0.74986381    -0.20100
C347        C  0.88474309  0.62589922  0.73882414    -0.20300
C348        C  0.90856429  0.61243180  0.73535980     0.02700
H349        H  0.84663552  0.61207909  0.75553928     0.16500
H350        H  0.88056818  0.64637960  0.73367753     0.16500
N351        N  0.09170975  0.40292367  0.74508977     0.00200
C352        C  0.11695304  0.40563766  0.75410392     0.02800
C353        C  0.13021089  0.38158685  0.75161917    -0.20100
C354        C  0.11223141  0.36369369  0.74089807    -0.20300
C355        C  0.08865621  0.37746477  0.73697226     0.02700
H356        H  0.15052257  0.37730342  0.75741311     0.16500
H357        H  0.11614565  0.34307074  0.73611207     0.16500
N358        N  0.09166307  0.58693977  0.74468150     0.00200
C359        C  0.11700314  0.58415085  0.75337379     0.02800
C360        C  0.13059424  0.60792346  0.75005115    -0.20100
C361        C  0.11273726  0.62575448  0.73913182    -0.20300
C362        C  0.08890085  0.61222155  0.73595854     0.02700
H363        H  0.15105820  0.61207273  0.75541420     0.16500
H364        H  0.11685881  0.64619832  0.73378178     0.16500
O365        O  0.02548821  0.52164662  0.76643640    -0.70700
O366        O  0.97156358  0.46781944  0.76602568    -0.70800
O367        O  0.02549677  0.46789704  0.76626642    -0.70800
O368        O  0.97156858  0.52164146  0.76614506    -0.70900
O369        O  0.97179151  0.52172714  0.72161353    -0.70800
O370        O  0.02574746  0.46796537  0.72173248    -0.70800
O371        O  0.97176505  0.46786798  0.72149669    -0.70800
O372        O  0.02573456  0.52175734  0.72190584    -0.70800
Ni373      Ni  0.99851122  0.49474091  0.76781570     1.25400
Ni374      Ni  0.99875813  0.49482685  0.72007388     1.25400
C375        C  0.03444068  0.53042718  0.74425075     0.91400
C376        C  0.96285286  0.45909404  0.74371653     0.91400
C377        C  0.03449232  0.45927447  0.74403198     0.91400
C378        C  0.96291158  0.53045478  0.74386011     0.91600
N379        N  0.74895968  0.40368080  0.90558370     0.00200
C380        C  0.75791670  0.40664375  0.88031602     0.02800
C381        C  0.75495070  0.38289485  0.86656842    -0.20100
C382        C  0.74397632  0.36489661  0.88416844    -0.20300
C383        C  0.74044294  0.37827530  0.90803996     0.02700
H384        H  0.76055169  0.37886705  0.84613484     0.16500
H385        H  0.73878491  0.34445301  0.87982244     0.16500
N386        N  0.75222931  0.58802737  0.90551009     0.00200
C387        C  0.76110820  0.58487136  0.88024579     0.02800
C388        C  0.75889993  0.60867019  0.86653234    -0.20100
C389        C  0.74840120  0.62693919  0.88414029    -0.20300
C390        C  0.74439112  0.61367135  0.90801638     0.02700
H391        H  0.76458920  0.61248761  0.84608406     0.16500
H392        H  0.74371881  0.64748149  0.87973592     0.16500
N393        N  0.74481578  0.40383804  0.09277387     0.00200
C394        C  0.75016509  0.40530551  0.11928171     0.02800
C395        C  0.74610552  0.38078595  0.13101312    -0.20100
C396        C  0.73841279  0.36361611  0.11105817    -0.20300
C397        C  0.73757910  0.37830890  0.08772352     0.02700
H398        H  0.74829373  0.37594462  0.15191524     0.16500
H399        H  0.73291585  0.34294493  0.11359213     0.16500
N400        N  0.75405771  0.59324551  0.08631833     0.00200
C401        C  0.76539312  0.59080338  0.11059912     0.02800
C402        C  0.76465178  0.61500631  0.12374453    -0.20100
C403        C  0.75268119  0.63285961  0.10657647    -0.20300
C404        C  0.74630233  0.61886375  0.08361408     0.02700
H405        H  0.77239707  0.61936904  0.14339296     0.16500
H406        H  0.74880239  0.65364047  0.11064012     0.16500
O407        O  0.77146487  0.52179771  0.97160952    -0.70700
O408        O  0.76958014  0.46920092  0.02703442    -0.70800
O409        O  0.77035160  0.46794666  0.97283011    -0.70800
O410        O  0.77079490  0.52314885  0.02538020    -0.70900
O411        O  0.72630633  0.52421993  0.02482995    -0.70800
O412        O  0.72587015  0.46881039  0.97220603    -0.70800
O413        O  0.72511492  0.47018037  0.02647943    -0.70800
O414        O  0.72698253  0.52273206  0.97098880    -0.70800
Ni415      Ni  0.77212713  0.49543114  0.99925831     1.25400
Ni416      Ni  0.72445771  0.49645540  0.99862781     1.25400
C417        C  0.74953840  0.53098700  0.96241153     0.91400
C418        C  0.74704064  0.46120784  0.03593710     0.91400
C419        C  0.74807774  0.45960090  0.96367817     0.91400
C420        C  0.74868811  0.53297091  0.03335943     0.91600
N421        N  0.90839275  0.40168412  0.24088380     0.00200
C422        C  0.91125179  0.37600673  0.24845818     0.02800
C423        C  0.88819933  0.36206090  0.24244285    -0.20100
C424        C  0.87080707  0.37997680  0.23090247    -0.20300
C425        C  0.88382968  0.40428684  0.23005900     0.02700
H426        H  0.88422119  0.34125554  0.24628137     0.16500
H427        H  0.85106620  0.37550486  0.22348797     0.16500
N428        N  0.90621781  0.58545780  0.25145473     0.00200
C429        C  0.88067562  0.58164072  0.24374994     0.02800
C430        C  0.86625353  0.60473156  0.24816568    -0.20100
C431        C  0.88385200  0.62320979  0.25862134    -0.20300
C432        C  0.90837530  0.61071972  0.26045850     0.02700
H433        H  0.84549973  0.60815527  0.24346682     0.16500
H434        H  0.87916390  0.64341637  0.26439778     0.16500
N435        N  0.09338185  0.40287486  0.24371840     0.00200
C436        C  0.09033864  0.37748944  0.25209094     0.02800
C437        C  0.11431335  0.36407863  0.24949841    -0.20100
C438        C  0.13252314  0.38213297  0.23944007    -0.20300
C439        C  0.11902391  0.40592160  0.23600550     0.02700
H440        H  0.11835675  0.34362911  0.25486314     0.16500
H441        H  0.15319753  0.37815567  0.23481331     0.16500
N442        N  0.09284933  0.58738771  0.24734651     0.00200
C443        C  0.11823036  0.58512695  0.23857651     0.02800
C444        C  0.13126565  0.60922318  0.24180805    -0.20100
C445        C  0.11300425  0.62668864  0.25273600    -0.20300
C446        C  0.08949061  0.61262157  0.25604071     0.02700
H447        H  0.15162920  0.61380895  0.23641133     0.16500
H448        H  0.11668455  0.64722122  0.25808641     0.16500
O449        O  0.02703129  0.52243556  0.22461273    -0.70700
O450        O  0.97308229  0.46870929  0.22340856    -0.70800
O451        O  0.97311309  0.52247856  0.22550138    -0.70800
O452        O  0.02700891  0.46870178  0.22263245    -0.70900
O453        O  0.02761169  0.46708778  0.26713241    -0.70800
O454        O  0.97375838  0.52080869  0.26999637    -0.70800
O455        O  0.97366113  0.46697661  0.26789841    -0.70800
O456        O  0.02771423  0.52082974  0.26910985    -0.70800
Ni457      Ni  0.00002715  0.49564357  0.22244207     1.25400
Ni458      Ni  0.00070506  0.49386869  0.27014553     1.25400
C459        C  0.03621675  0.53033523  0.24703079     0.91400
C460        C  0.96457939  0.45907228  0.24541002     0.91400
C461        C  0.96463127  0.53036564  0.24821532     0.91400
C462        C  0.03613665  0.45920237  0.24444566     0.91600
N463        N  0.90833278  0.24434734  0.40074012     0.00200
C464        C  0.91123971  0.25230426  0.37516458     0.02800
C465        C  0.88760211  0.24825883  0.36149251    -0.20100
C466        C  0.86972854  0.23763486  0.37953830    -0.20300
C467        C  0.88310003  0.23534031  0.40358362     0.02700
H468        H  0.88355638  0.25296873  0.34084627     0.16500
H469        H  0.84937585  0.23186224  0.37538903     0.16500
N470        N  0.90767237  0.24539548  0.58601015     0.00200
C471        C  0.91048251  0.25386387  0.61142077     0.02800
C472        C  0.88665778  0.25055442  0.62497574    -0.20100
C473        C  0.86875684  0.23986743  0.60701420    -0.20300
C474        C  0.88231049  0.23682124  0.58315714     0.02700
H475        H  0.88252772  0.25576455  0.64549113     0.16500
H476        H  0.84827134  0.23453476  0.61110046     0.16500
N477        N  0.09362692  0.24693694  0.40145170     0.00200
C478        C  0.09081517  0.25523155  0.37597695     0.02800
C479        C  0.11465775  0.25177013  0.36248631    -0.20100
C480        C  0.13252410  0.24115098  0.38055527    -0.20300
C481        C  0.11894916  0.23826403  0.40443306     0.02700
H482        H  0.11880225  0.25674256  0.34191890     0.16500
H483        H  0.15296621  0.23566287  0.37648361     0.16500
N484        N  0.09268597  0.24677966  0.58708382     0.00200
C485        C  0.08968914  0.25508477  0.61256018     0.02800
C486        C  0.11354732  0.25205573  0.62610675    -0.20100
C487        C  0.13162807  0.24168493  0.60810407    -0.20300
C488        C  0.11816759  0.23851704  0.58420292     0.02700
H489        H  0.11757227  0.25721608  0.64665556     0.16500
H490        H  0.15215218  0.23656314  0.61222743     0.16500
O491        O  0.02794434  0.22445834  0.46680780    -0.70700
O492        O  0.97377933  0.22378463  0.52047743    -0.70800
O493        O  0.97404563  0.22391841  0.46656553    -0.70800
O494        O  0.02770036  0.22430838  0.52076106    -0.70900
O495        O  0.02728462  0.26875277  0.52089911    -0.70800
O496        O  0.97360209  0.26836478  0.46665825    -0.70800
O497        O  0.97335793  0.26823325  0.52059951    -0.70800
O498        O  0.02753143  0.26890832  0.46692967    -0.70800
Ni499      Ni  0.00088865  0.22251941  0.49364522     1.25400
Ni500      Ni  0.00043533  0.27017004  0.49377496     1.25400
C501        C  0.03654344  0.24678830  0.45811928     0.91400
C502        C  0.96473406  0.24590163  0.52926599     0.91400
C503        C  0.96505755  0.24605880  0.45780825     0.91400
C504        C  0.03620645  0.24659085  0.52969504     0.91600
O505        O  0.02788805  0.30548078  0.26573073    -0.70700
O506        O  0.97390159  0.26690787  0.30349236    -0.70800
O507        O  0.97350988  0.30452143  0.26528701    -0.70800
O508        O  0.02825732  0.26794154  0.30389000    -0.70900
O509        O  0.02742084  0.29925968  0.33539517    -0.70800
O510        O  0.97277391  0.33643135  0.29618817    -0.70800
O511        O  0.97309334  0.29830467  0.33492176    -0.70800
O512        O  0.02712497  0.33733245  0.29669653    -0.70800
Ni513      Ni  0.00090108  0.28512625  0.28352792     1.25400
Ni514      Ni  0.00005534  0.31898196  0.31694057     1.25400
C515        C  0.03672293  0.32746716  0.27513538     0.91400
C516        C  0.96438996  0.27633036  0.32521172     0.91400
C517        C  0.96395685  0.32632469  0.27440588     0.91400
C518        C  0.03714612  0.27770024  0.32572796     0.91600
O519        O  0.80363449  0.15325783  0.46701724    -0.70700
O520        O  0.84201716  0.19191515  0.52094759    -0.70800
O521        O  0.80324376  0.15401742  0.52127561    -0.70800
O522        O  0.84239692  0.19121254  0.46667965    -0.70900
O523        O  0.81097052  0.22257627  0.46598557    -0.70800
O524        O  0.77239605  0.18594905  0.52077548    -0.70800
O525        O  0.81070035  0.22339806  0.52037382    -0.70800
O526        O  0.77269020  0.18510213  0.46636583    -0.70800
Ni527      Ni  0.82394758  0.17145264  0.49400077     1.25400
Ni528      Ni  0.79060953  0.20535969  0.49335177     1.25400
C529        C  0.78204621  0.16309433  0.45755375     0.91400
C530        C  0.83236737  0.21382515  0.52980809     0.91400
C531        C  0.78159483  0.16418216  0.53030251     0.91400
C532        C  0.83278867  0.21282645  0.45706593     0.91600
O533        O  0.22798197  0.18549644  0.46765840    -0.70700
O534        O  0.19022775  0.22398725  0.52179018    -0.70800
O535        O  0.22784505  0.18584944  0.52205763    -0.70800
O536        O  0.19039998  0.22368224  0.46734963    -0.70900
O537        O  0.15849926  0.19276905  0.46739542    -0.70800
O538        O  0.19639718  0.15447667  0.52219521    -0.70800
O539        O  0.15827529  0.19312674  0.52175838    -0.70800
O540        O  0.19661711  0.15403892  0.46786949    -0.70800
Ni541      Ni  0.21020203  0.20583142  0.49470603     1.25400
Ni542      Ni  0.17629019  0.17247751  0.49480080     1.25400
C543        C  0.21846637  0.16361362  0.45867273     0.91400
C544        C  0.16826747  0.21476954  0.53095274     0.91400
C545        C  0.21819155  0.16418792  0.53139930     0.91400
C546        C  0.16853717  0.21434689  0.45809191     0.91600
O547        O  0.84677500  0.46923945  0.18447857    -0.70700
O548        O  0.81168868  0.52790840  0.14944414    -0.70800
O549        O  0.84579761  0.52291832  0.19133381    -0.70800
O550        O  0.81296787  0.47438772  0.14208893    -0.70900
O551        O  0.77806849  0.47015436  0.16925134    -0.70800
O552        O  0.81111212  0.51869638  0.21879812    -0.70800
O553        O  0.77737981  0.52380601  0.17743613    -0.70800
O554        O  0.81160031  0.46481038  0.21128955    -0.70800
Ni555      Ni  0.83054913  0.49873337  0.16586122     1.25400
Ni556      Ni  0.79333411  0.49415685  0.19516908     1.25400
C557        C  0.83472020  0.45728042  0.20360973     0.91400
C558        C  0.78891164  0.53570231  0.15809189     0.91400
C559        C  0.83366198  0.52920800  0.21291160     0.91400
C560        C  0.79018785  0.46423942  0.14747420     0.91600
O561        O  0.15962739  0.52349244  0.19297578    -0.70700
O562        O  0.19888151  0.46956989  0.15500380    -0.70800
O563        O  0.15984061  0.46924706  0.19270379    -0.70800
O564        O  0.19861329  0.52371837  0.15511592    -0.70900
O565        O  0.22934801  0.52388586  0.18722058    -0.70800
O566        O  0.19098649  0.46919082  0.22440565    -0.70800
O567        O  0.22958711  0.46958655  0.18714464    -0.70800
O568        O  0.19083886  0.52358968  0.22461914    -0.70800
Ni569      Ni  0.17812289  0.49651281  0.17280307     1.25400
Ni570      Ni  0.21125828  0.49657078  0.20696716     1.25400
C571        C  0.16909860  0.53269016  0.21488107     0.91400
C572        C  0.22049865  0.46044728  0.16513077     0.91400
C573        C  0.16934605  0.45992583  0.21451410     0.91400
C574        C  0.22018471  0.53299261  0.16521073     0.91600
O575        O  0.69468302  0.33789534  0.96942482    -0.70700
O576        O  0.65619391  0.30030559  0.02401011    -0.70800
O577        O  0.69460669  0.33867386  0.02359063    -0.70800
O578        O  0.65625358  0.29963743  0.96967368    -0.70900
O579        O  0.68785917  0.26845223  0.97006639    -0.70800
O580        O  0.72577738  0.30705347  0.02401190    -0.70800
O581        O  0.68785954  0.26917148  0.02449712    -0.70800
O582        O  0.72581736  0.30622077  0.96970840    -0.70800
Ni583      Ni  0.67428022  0.32025075  0.99665980     1.25400
Ni584      Ni  0.70790432  0.28661968  0.99708852     1.25400
C585        C  0.71643812  0.32798894  0.96040963     0.91400
C586        C  0.66604619  0.27877863  0.03355463     0.91400
C587        C  0.71636811  0.32903142  0.03287725     0.91400
C588        C  0.66610584  0.27786725  0.96064854     0.91600
O589        O  0.80914846  0.46786129  0.76932304    -0.70700
O590        O  0.77259338  0.52228564  0.80833795    -0.70800
O591        O  0.80931473  0.52212206  0.76934397    -0.70800
O592        O  0.77230774  0.46811476  0.80824883    -0.70900
O593        O  0.80422882  0.46802733  0.83919470    -0.70800
O594        O  0.84191731  0.52192992  0.79956377    -0.70800
O595        O  0.80467993  0.52214918  0.83911113    -0.70800
O596        O  0.84161630  0.46770005  0.79968097    -0.70800
Ni597      Ni  0.78973388  0.49509718  0.78775912     1.25400
Ni598      Ni  0.82430279  0.49494125  0.82049643     1.25400
C599        C  0.83117399  0.45856351  0.77820124     0.91400
C600        C  0.78271144  0.53138746  0.82991908     0.91400
C601        C  0.83145587  0.53118466  0.77814727     0.91400
C602        C  0.78217610  0.45901027  0.82991233     0.91600
O603        O  0.02665945  0.26846031  0.68431863    -0.70700
O604        O  0.97134676  0.30577818  0.72154211    -0.70800
O605        O  0.97231840  0.26801822  0.68358620    -0.70800
O606        O  0.02573160  0.30614904  0.72242259    -0.70900
O607        O  0.02603260  0.33785522  0.69132831    -0.70800
O608        O  0.97250719  0.29925561  0.65201016    -0.70800
O609        O  0.97167164  0.33752620  0.69049355    -0.70800
O610        O  0.02676586  0.29966901  0.65272499    -0.70800
Ni611      Ni  0.99900638  0.28602220  0.70405343     1.25400
Ni612      Ni  0.99925588  0.31973059  0.67050596     1.25400
C613        C  0.03601133  0.27800782  0.66257344     0.91400
C614        C  0.96213702  0.32754526  0.71201328     0.91400
C615        C  0.96335506  0.27744994  0.66166760     0.91400
C616        C  0.03500192  0.32798975  0.71314588     0.91600
O617        O  0.18882200  0.52206745  0.76808976    -0.70700
O618        O  0.22693060  0.46832032  0.80644463    -0.70800
O619        O  0.18900726  0.46778762  0.76851644    -0.70800
O620        O  0.22669236  0.52256303  0.80598388    -0.70900
O621        O  0.19555601  0.52258446  0.83772840    -0.70800
O622        O  0.15726902  0.46800596  0.79964973    -0.70800
O623        O  0.19573085  0.46841380  0.83812090    -0.70800
O624        O  0.15715659  0.52221500  0.79930303    -0.70800
Ni625      Ni  0.20894429  0.49517616  0.78617238     1.25400
Ni626      Ni  0.17527987  0.49530574  0.81984425     1.25400
C627        C  0.16696759  0.53125396  0.77748880     0.91400
C628        C  0.21753871  0.45929393  0.82837883     0.91400
C629        C  0.16713975  0.45866742  0.77798227     0.91400
C630        C  0.21724517  0.53179204  0.82781228     0.91600
O631        O  0.34089734  0.29912139  0.96948150    -0.70700
O632        O  0.30308333  0.33769093  0.02390597    -0.70800
O633        O  0.34110366  0.29907043  0.02374089    -0.70800
O634        O  0.30284295  0.33775824  0.96963779    -0.70900
O635        O  0.27131611  0.30645924  0.96975392    -0.70800
O636        O  0.30922197  0.26813186  0.02382743    -0.70800
O637        O  0.27164610  0.30629709  0.02419055    -0.70800
O638        O  0.30891582  0.26828092  0.96941876    -0.70800
Ni639      Ni  0.32312148  0.31953625  0.99668444     1.25400
Ni640      Ni  0.28916624  0.28621070  0.99679573     1.25400
C641        C  0.33085257  0.27753456  0.96024336     0.91400
C642        C  0.28137620  0.32802613  0.03331196     0.91400
C643        C  0.33116541  0.27742183  0.03295403     0.91400
C644        C  0.28096654  0.32817426  0.96052334     0.91600
O645        O  0.52577161  0.15549876  0.79832763    -0.70700
O646        O  0.47167389  0.19331369  0.83749447    -0.70800
O647        O  0.47158402  0.15553261  0.79853071    -0.70800
O648        O  0.52595170  0.19323178  0.83734580    -0.70900
O649        O  0.52589323  0.22487991  0.80618782    -0.70800
O650        O  0.47152387  0.18754401  0.76773971    -0.70800
O651        O  0.47150900  0.22484387  0.80621374    -0.70800
O652        O  0.52578587  0.18762637  0.76765948    -0.70800
Ni653      Ni  0.49874382  0.17324232  0.81905674     1.25400
Ni654      Ni  0.49867595  0.20733574  0.78588746     1.25400
C655        C  0.53489747  0.16563366  0.77670319     0.91400
C656        C  0.46241067  0.21511386  0.82796543     0.91400
C657        C  0.46241806  0.16557958  0.77690112     0.91400
C658        C  0.53515218  0.21507359  0.82784088     0.91600
O659        O  0.52610504  0.18455978  0.22451506    -0.70700
O660        O  0.47160595  0.22278601  0.18705343    -0.70800
O661        O  0.47169054  0.18410049  0.22407337    -0.70800
O662        O  0.52595665  0.22334763  0.18750400    -0.70900
O663        O  0.52649083  0.19288161  0.15515664    -0.70800
O664        O  0.47219454  0.15320969  0.19213002    -0.70800
O665        O  0.47225053  0.19241348  0.15462570    -0.70800
O666        O  0.52649344  0.15360686  0.19264263    -0.70800
Ni667      Ni  0.49882884  0.20475287  0.20690926     1.25400
Ni668      Ni  0.49938665  0.17191325  0.17247770     1.25400
C669        C  0.53550876  0.16300621  0.21465042     0.91400
C670        C  0.46271991  0.21377658  0.16488529     0.91400
C671        C  0.46271538  0.16247698  0.21399490     0.91400
C672        C  0.53533641  0.21450793  0.16548680     0.91600
O673        O  0.31007568  0.02429464  0.72349116    -0.70700
O674        O  0.27235810  0.96963350  0.68611466    -0.70800
O675        O  0.31055976  0.96999114  0.72359634    -0.70800
O676        O  0.27198098  0.02400941  0.68590412    -0.70900
O677        O  0.30294271  0.02406751  0.65399737    -0.70800
O678        O  0.34190294  0.97016294  0.69205943    -0.70800
O679        O  0.30326101  0.96978254  0.65414178    -0.70800
O680        O  0.34151412  0.02437151  0.69203765    -0.70800
Ni681      Ni  0.29015897  0.99697700  0.70587303     1.25400
Ni682      Ni  0.32353384  0.99710757  0.67190461     1.25400
C683        C  0.33172023  0.03361671  0.71377249     0.91400
C684        C  0.28177295  0.96036314  0.66429842     0.91400
C685        C  0.33229291  0.96085774  0.71383722     0.91400
C686        C  0.28131010  0.03327058  0.66402571     0.91600
O687        O  0.47254367  0.83814573  0.79746322    -0.70700
O688        O  0.52661550  0.79937239  0.83586011    -0.70800
O689        O  0.52682436  0.83789560  0.79747522    -0.70800
O690        O  0.47231337  0.79987235  0.83598324    -0.70900
O691        O  0.47187821  0.76874395  0.80428786    -0.70800
O692        O  0.52672780  0.80625605  0.76629212    -0.70800
O693        O  0.52627487  0.76824148  0.80415802    -0.70800
O694        O  0.47235374  0.80650731  0.76626319    -0.70800
Ni695      Ni  0.49959259  0.81995414  0.81783831     1.25400
Ni696      Ni  0.49930864  0.78634879  0.78416553     1.25400
C697        C  0.46331162  0.82836836  0.77570010     0.91400
C698        C  0.53556007  0.77755421  0.82601085     0.91400
C699        C  0.53595636  0.82811659  0.77568745     0.91400
C700        C  0.46283034  0.77827113  0.82619321     0.91600
O701        O  0.34163045  0.69241719  0.02182223    -0.70700
O702        O  0.30317382  0.65369946  0.96798331    -0.70800
O703        O  0.34136495  0.69232183  0.96752024    -0.70800
O704        O  0.30344181  0.65394818  0.02228033    -0.70900
O705        O  0.27213153  0.68543298  0.02245465    -0.70800
O706        O  0.30945680  0.72319699  0.96761016    -0.70800
O707        O  0.27176570  0.68509491  0.96808957    -0.70800
O708        O  0.30984252  0.72343098  0.02197489    -0.70800
Ni709      Ni  0.32354990  0.67195735  0.99488915     1.25400
Ni710      Ni  0.28970615  0.70536504  0.99502371     1.25400
C711        C  0.33175993  0.71408089  0.03104097     0.91400
C712        C  0.28130505  0.66330991  0.95893637     0.91400
C713        C  0.33134048  0.71394472  0.95832886     0.91400
C714        C  0.28177100  0.66373715  0.03168382     0.91600
O715        O  0.47284471  0.80463291  0.22249843    -0.70700
O716        O  0.52731963  0.76801930  0.18341468    -0.70800
O717        O  0.52722152  0.80512659  0.22198945    -0.70800
O718        O  0.47293495  0.76737939  0.18397885    -0.70900
O719        O  0.47233070  0.79904531  0.15283845    -0.70800
O720        O  0.52668361  0.83724175  0.19131511    -0.70800
O721        O  0.52658997  0.79966434  0.15225993    -0.70800
O722        O  0.47242150  0.83676151  0.19183986    -0.70800
Ni723      Ni  0.50008874  0.78517976  0.20403940     1.25400
Ni724      Ni  0.49946765  0.81933514  0.17094195     1.25400
C725        C  0.46346678  0.82654515  0.21348534     0.91400
C726        C  0.53623402  0.77799762  0.16168368     0.91400
C727        C  0.53621381  0.82710140  0.21275737     0.91400
C728        C  0.46345874  0.77708363  0.16239492     0.91600
O729        O  0.34216975  0.02105439  0.29912776    -0.70700
O730        O  0.30448173  0.96678303  0.33815794    -0.70800
O731        O  0.34214377  0.96692143  0.29900208    -0.70800
O732        O  0.30449044  0.02101198  0.33830730    -0.70900
O733        O  0.27271986  0.02097287  0.30722053    -0.70800
O734        O  0.30997564  0.96693386  0.26832289    -0.70800
O735        O  0.27280428  0.96667657  0.30697508    -0.70800
O736        O  0.30989473  0.02115434  0.26856198    -0.70800
Ni737      Ni  0.32448248  0.99393803  0.31977386     1.25400
Ni738      Ni  0.29023375  0.99393838  0.28671247     1.25400
C739        C  0.33195253  0.03024998  0.27758028     0.91400
C740        C  0.28261858  0.95753252  0.32866706     0.91400
C741        C  0.33199689  0.95781339  0.27737069     0.91400
C742        C  0.28257093  0.03017141  0.32889111     0.91600
O743        O  0.15704894  0.79988868  0.52480787    -0.70700
O744        O  0.19614785  0.83781770  0.47069229    -0.70800
O745        O  0.15742846  0.79964774  0.47039715    -0.70800
O746        O  0.19571826  0.83787918  0.52502859    -0.70900
O747        O  0.22659320  0.80596548  0.52540061    -0.70800
O748        O  0.18899239  0.76841983  0.47065011    -0.70800
O749        O  0.22713566  0.80601757  0.47103398    -0.70800
O750        O  0.18845759  0.76849920  0.52509084    -0.70800
Ni751      Ni  0.17543850  0.81995905  0.49770643     1.25400
Ni752      Ni  0.20885681  0.78613346  0.49804229     1.25400
C753        C  0.16672533  0.77822487  0.53423268     0.91400
C754        C  0.21791718  0.82786566  0.46172134     0.91400
C755        C  0.16727992  0.77791443  0.46124992     0.91400
C756        C  0.21723350  0.82783904  0.53449876     0.91600
O757        O  0.02687538  0.72112004  0.30782606    -0.70700
O758        O  0.97115116  0.68337365  0.27129700    -0.70800
O759        O  0.97249150  0.72166704  0.30876199    -0.70800
O760        O  0.02563898  0.68306430  0.27007529    -0.70900
O761        O  0.02626697  0.65178710  0.30159195    -0.70800
O762        O  0.97264073  0.69074350  0.34063619    -0.70800
O763        O  0.97189611  0.65198830  0.30269564    -0.70800
O764        O  0.02695767  0.69032921  0.33982256    -0.70800
Ni765      Ni  0.99903458  0.70337624  0.28838232     1.25400
Ni766      Ni  0.99945829  0.67007905  0.32232278     1.25400
C767        C  0.03623877  0.71184077  0.32969412     0.91400
C768        C  0.96208056  0.66167210  0.28119327     0.91400
C769        C  0.96346475  0.71244316  0.33074976     0.91400
C770        C  0.03509321  0.66142226  0.27959301     0.91600
O771        O  0.77105357  0.80617761  0.47025277    -0.70700
O772        O  0.80956630  0.76893466  0.52466008    -0.70800
O773        O  0.77135684  0.80648066  0.52473144    -0.70800
O774        O  0.80931656  0.76862069  0.47023492    -0.70900
O775        O  0.84077488  0.79998204  0.46998411    -0.70800
O776        O  0.80231665  0.83832747  0.52432350    -0.70800
O777        O  0.84102141  0.80030179  0.52429909    -0.70800
O778        O  0.80200818  0.83803221  0.46997746    -0.70800
Ni779      Ni  0.78924161  0.78645750  0.49747456     1.25400
Ni780      Ni  0.82265212  0.82030838  0.49712540     1.25400
C781        C  0.78029662  0.82802228  0.46091047     0.91400
C782        C  0.83137649  0.77860148  0.53370511     0.91400
C783        C  0.78073468  0.82840292  0.53378192     0.91400
C784        C  0.83109268  0.77814144  0.46093400     0.91600
O785        O  0.69659825  0.02204670  0.33638022    -0.70700
O786        O  0.65802264  0.96777285  0.29812410    -0.70800
O787        O  0.69617886  0.96791456  0.33679789    -0.70800
O788        O  0.65827184  0.02199506  0.29782703    -0.70900
O789        O  0.69007365  0.02181663  0.26676848    -0.70800
O790        O  0.72745104  0.96731918  0.30520761    -0.70800
O791        O  0.68976735  0.96747333  0.26699804    -0.70800
O792        O  0.72792222  0.02160034  0.30482818    -0.70800
Ni793      Ni  0.67611739  0.99495229  0.31840063     1.25400
Ni794      Ni  0.70989422  0.99454071  0.28485587     1.25400
C795        C  0.71850549  0.03092138  0.32662534     0.91400
C796        C  0.66788848  0.95841007  0.27646055     0.91400
C797        C  0.71788856  0.95848105  0.32717669     0.91400
C798        C  0.66819933  0.03109930  0.27610219     0.91600
O799        O  0.02624364  0.69273096  0.65512864    -0.70700
O800        O  0.97160759  0.65341024  0.69188999    -0.70800
O801        O  0.97194771  0.69300930  0.65490093    -0.70800
O802        O  0.02591865  0.65314755  0.69211199    -0.70900
O803        O  0.02597097  0.68375104  0.72433765    -0.70800
O804        O  0.97184460  0.72303814  0.68765944    -0.70800
O805        O  0.97161655  0.68394446  0.72418522    -0.70800
O806        O  0.02624666  0.72283531  0.68782122    -0.70800
Ni807      Ni  0.99892450  0.67197055  0.67232562     1.25400
Ni808      Ni  0.99892005  0.70443655  0.70712881     1.25400
C809        C  0.03552128  0.71403621  0.66574134     0.91400
C810        C  0.96233464  0.66255789  0.71388990     0.91400
C811        C  0.96271889  0.71435806  0.66546681     0.91400
C812        C  0.03515565  0.66227945  0.71413851     0.91600
O813        O  0.72716450  0.02556892  0.68636199    -0.70700
O814        O  0.68832598  0.97116088  0.72338600    -0.70800
O815        O  0.72720058  0.97118691  0.68642394    -0.70800
O816        O  0.68833835  0.02552417  0.72335229    -0.70900
O817        O  0.65749266  0.02544505  0.69134447    -0.70800
O818        O  0.69669971  0.97103479  0.65409511    -0.70800
O819        O  0.65735121  0.97120449  0.69151449    -0.70800
O820        O  0.69680632  0.02523916  0.65390057    -0.70800
Ni821      Ni  0.70881907  0.99836734  0.70600427     1.25400
Ni822      Ni  0.67598086  0.99823874  0.67155335     1.25400
C823        C  0.71825623  0.03457219  0.66421217     0.91400
C824        C  0.66671423  0.96193325  0.71341543     0.91400
C825        C  0.71818485  0.96185415  0.66444579     0.91400
C826        C  0.66678197  0.03470201  0.71329225     0.91600
O827        O  0.72899376  0.68776801  0.96716837    -0.70700
O828        O  0.69049112  0.72735519  0.01982533    -0.70800
O829        O  0.72890373  0.68998783  0.02135584    -0.70800
O830        O  0.69054945  0.72507864  0.96545659    -0.70900
O831        O  0.65919857  0.69363501  0.96689735    -0.70800
O832        O  0.69822326  0.65787361  0.02243341    -0.70800
O833        O  0.65933055  0.69571731  0.02114188    -0.70800
O834        O  0.69815561  0.65580206  0.96833398    -0.70800
Ni835      Ni  0.71079404  0.70866698  0.99340629     1.25400
Ni836      Ni  0.67758518  0.67462087  0.99474496     1.25400
C837        C  0.71989285  0.66542892  0.95894743     0.91400
C838        C  0.66883513  0.71792325  0.02945908     0.91400
C839        C  0.71989892  0.66824476  0.03114226     0.91400
C840        C  0.66874828  0.71505094  0.95677922     0.91600
C841        C  0.06507453  0.26711477  0.62385381    -0.12800
C842        C  0.05866314  0.26419472  0.64973768    -0.27900
H843        H  0.05212801  0.27843969  0.61075401     0.16300
H844        H  0.07061070  0.25116360  0.66219676     0.16800
C845        C  0.12947838  0.22624801  0.55969586    -0.12800
C846        C  0.15540161  0.22891477  0.55339598    -0.27900
H847        H  0.11635889  0.21490912  0.54675714     0.16300
H848        H  0.16790913  0.24192966  0.56533895     0.16800
C849        C  0.07299367  0.24676362  0.56721766    -0.09600
C850        C  0.05618529  0.24671787  0.55008592    -0.11200
C851        C  0.06628923  0.26737501  0.36459910    -0.12800
C852        C  0.05987885  0.26421992  0.33875804    -0.27900
H853        H  0.05332402  0.27878473  0.37762523     0.16300
H854        H  0.07188721  0.25110740  0.32642289     0.16800
C855        C  0.12998060  0.22593464  0.42903515    -0.12800
C856        C  0.15590625  0.22830782  0.43541359    -0.27900
H857        H  0.11665034  0.21491242  0.44202729     0.16300
H858        H  0.16861083  0.24107073  0.42341351     0.16800
C859        C  0.07378681  0.24703374  0.42113651    -0.09600
C860        C  0.05676705  0.24700996  0.43802780    -0.11200
C861        C  0.93487622  0.26625673  0.62267966    -0.12800
C862        C  0.94115885  0.26330391  0.64854052    -0.27900
H863        H  0.94767329  0.27786418  0.60966142     0.16300
H864        H  0.92933949  0.24999630  0.66085119     0.16800
C865        C  0.84530261  0.22787190  0.55217584    -0.12800
C866        C  0.87108209  0.22465762  0.55865039    -0.27900
H867        H  0.83298610  0.24121785  0.56394552     0.16300
H868        H  0.88409338  0.21300604  0.54588398     0.16800
C869        C  0.92744297  0.24551853  0.56623585    -0.09600
C870        C  0.94445332  0.24566149  0.54932080    -0.11200
C871        C  0.93550251  0.26502298  0.36390582    -0.12800
C872        C  0.94216573  0.26194322  0.33812488    -0.27900
H873        H  0.94795845  0.27699287  0.37693138     0.16300
H874        H  0.93073462  0.24832327  0.32578261     0.16800
C875        C  0.87180865  0.22352617  0.42829631    -0.12800
C876        C  0.84586160  0.22632776  0.43438665    -0.27900
H877        H  0.88490206  0.21255043  0.44154870     0.16300
H878        H  0.83345534  0.23908196  0.42208626     0.16800
C879        C  0.92796503  0.24521180  0.42063334    -0.09600
C880        C  0.94489860  0.24580614  0.43761864    -0.11200
C881        C  0.05755282  0.64874302  0.26533087    -0.12800
C882        C  0.06483578  0.62322024  0.26861739    -0.27900
H883        H  0.06881908  0.66119644  0.25167437     0.16300
H884        H  0.05265045  0.60996519  0.28060013     0.16800
C885        C  0.15588238  0.55502253  0.22881780    -0.12800
C886        C  0.12990200  0.56097236  0.22603034    -0.27900
H887        H  0.16813651  0.56705403  0.24199676     0.16300
H888        H  0.11699318  0.54791344  0.21459312     0.16800
C889        C  0.05651582  0.55033277  0.24735294    -0.09600
C890        C  0.07342344  0.56731802  0.24734938    -0.11200
C891        C  0.06561577  0.36628009  0.26404983    -0.12800
C892        C  0.05933124  0.34040304  0.26131840    -0.27900
H893        H  0.05253045  0.37941295  0.27519093     0.16300
H894        H  0.07147628  0.32791990  0.24847174     0.16800
C895        C  0.13054169  0.43057154  0.22427931    -0.12800
C896        C  0.15624892  0.43724409  0.22805695    -0.27900
H897        H  0.11771369  0.44336178  0.21248055     0.16300
H898        H  0.16838476  0.42541740  0.24150161     0.16800
C899        C  0.07356729  0.42253121  0.24343103    -0.09600
C900        C  0.05646163  0.43928977  0.24353593    -0.11200
C901        C  0.93303439  0.62272025  0.27169775    -0.12800
C902        C  0.93909725  0.64856734  0.26810980    -0.27900
H903        H  0.94651870  0.61000539  0.28282999     0.16300
H904        H  0.92661676  0.66068078  0.25524709     0.16800
C905        C  0.87063801  0.55762716  0.22955239    -0.12800
C906        C  0.84490891  0.55001754  0.23060066    -0.27900
H907        H  0.88460477  0.54646865  0.21736521     0.16300
H908        H  0.83135511  0.56009470  0.24413096     0.16800
C909        C  0.92679679  0.56661824  0.25021952    -0.09600
C910        C  0.94425758  0.55024200  0.24928258    -0.11200
C911        C  0.93505750  0.36478606  0.26216308    -0.12800
C912        C  0.94169997  0.33894589  0.25975376    -0.27900
H913        H  0.94736636  0.37795961  0.27411663     0.16300
H914        H  0.93047857  0.32636815  0.24618163     0.16800
C915        C  0.84667023  0.43378824  0.21675481    -0.12800
C916        C  0.87304828  0.42904828  0.21780001    -0.27900
H917        H  0.83306115  0.42014146  0.22658114     0.16300
H918        H  0.88691303  0.44364164  0.20989747     0.16800
C919        C  0.92770208  0.42176938  0.24317781    -0.09600
C920        C  0.94444666  0.43887462  0.24470346    -0.11200
C921        C  0.73460152  0.65585836  0.05341770    -0.12800
C922        C  0.73230202  0.63001918  0.06003222    -0.27900
H923        H  0.74818694  0.66851047  0.06453381     0.16300
H924        H  0.72035380  0.61678846  0.04777841     0.16800
C925        C  0.77798888  0.56620555  0.12094399    -0.12800
C926        C  0.77587430  0.55939448  0.14670336    -0.27900
H927        H  0.78839216  0.55321188  0.10712305     0.16300
H928        H  0.76337199  0.57120189  0.15985359     0.16800
C929        C  0.74920146  0.55454754  0.05201917    -0.09600
C930        C  0.75100750  0.57269467  0.06760273    -0.11200
C931        C  0.72717983  0.36791502  0.06195587    -0.12800
C932        C  0.73028829  0.34212775  0.05531001    -0.27900
H933        H  0.71604575  0.38117433  0.04901372     0.16300
H934        H  0.74307805  0.32961044  0.06746523     0.16800
C935        C  0.75791384  0.42911223  0.13499317    -0.12800
C936        C  0.77847622  0.44487979  0.12835308    -0.27900
H937        H  0.74932319  0.43090936  0.15479344     0.16300
H938        H  0.78863042  0.44169108  0.10949289     0.16800
C939        C  0.74569380  0.42461173  0.07394708    -0.09600
C940        C  0.74633922  0.44163188  0.05692001    -0.11200
C941        C  0.73181730  0.62555379  0.93203874    -0.12800
C942        C  0.73438210  0.65166037  0.93737998    -0.27900
H943        H  0.72022557  0.61288540  0.94518784     0.16300
H944        H  0.74765472  0.66370278  0.92525199     0.16800
C945        C  0.76921857  0.55384977  0.84320001    -0.12800
C946        C  0.77260471  0.56006786  0.86904492    -0.27900
H947        H  0.75608434  0.56596849  0.83101003     0.16300
H948        H  0.78396930  0.54701874  0.88200144     0.16800
C949        C  0.75111913  0.56824329  0.92528446    -0.09600
C950        C  0.75028972  0.55116522  0.94215968    -0.11200
C951        C  0.72792481  0.36679983  0.93221259    -0.12800
C952        C  0.73061682  0.34088247  0.93816166    -0.27900
H953        H  0.71648865  0.37975729  0.94522153     0.16300
H954        H  0.74376928  0.32851593  0.92622712     0.16800
C955        C  0.77032045  0.43108085  0.86918530    -0.12800
C956        C  0.76819493  0.43678881  0.84309180    -0.27900
H957        H  0.78123244  0.44430108  0.88237886     0.16300
H958        H  0.75543258  0.42458005  0.83057873     0.16800
C959        C  0.74852828  0.42319502  0.92566668    -0.09600
C960        C  0.74810740  0.43970424  0.94312606    -0.11200
C961        C  0.06439564  0.62348847  0.72381153    -0.12800
C962        C  0.05770768  0.64909273  0.72765505    -0.27900
H963        H  0.05173641  0.61063958  0.71186567     0.16300
H964        H  0.06942912  0.66112937  0.74130941     0.16800
C965        C  0.12816200  0.55983354  0.76596667    -0.12800
C966        C  0.15405657  0.55353176  0.76328904    -0.27900
H967        H  0.11501341  0.54705400  0.77744147     0.16300
H968        H  0.16652682  0.56531738  0.75009620     0.16800
C969        C  0.05475538  0.55042772  0.74445716    -0.09600
C970        C  0.07184307  0.56724305  0.74463178    -0.11200
C971        C  0.05734832  0.34076771  0.72746998    -0.12800
C972        C  0.06423080  0.36642612  0.72434598    -0.27900
H973        H  0.06878086  0.32836292  0.74100964     0.16300
H974        H  0.05181989  0.37952771  0.71244430     0.16800
C975        C  0.12823268  0.43014713  0.76633651    -0.12800
C976        C  0.15426553  0.43612220  0.76406198    -0.27900
H977        H  0.11502634  0.44337374  0.77721819     0.16300
H978        H  0.16685496  0.42389870  0.75139496     0.16800
C979        C  0.07205422  0.42273000  0.74455053    -0.09600
C980        C  0.05493071  0.43946270  0.74415693    -0.11200
C981        C  0.93301245  0.62383179  0.72325559    -0.12800
C982        C  0.93969677  0.64940669  0.72727668    -0.27900
H983        H  0.94569717  0.61106546  0.71125479     0.16300
H984        H  0.92797850  0.66137809  0.74098616     0.16800
C985        C  0.86986106  0.55991029  0.76579354    -0.12800
C986        C  0.84394264  0.55355140  0.76372220    -0.27900
H987        H  0.88328757  0.54714256  0.77693265     0.16300
H988        H  0.83113704  0.56533270  0.75086944     0.16800
C989        C  0.92577905  0.56748221  0.74388350    -0.09600
C990        C  0.94276659  0.55059105  0.74382845    -0.11200
C991        C  0.93277462  0.36599821  0.72281746    -0.12800
C992        C  0.93934357  0.34022222  0.72573571    -0.27900
H993        H  0.94558556  0.37914841  0.71138174     0.16300
H994        H  0.92751529  0.32774421  0.73887768     0.16800
C995        C  0.84360932  0.43607749  0.76382512    -0.12800
C996        C  0.86954422  0.42968364  0.76593371    -0.27900
H997        H  0.83078825  0.42426271  0.75099699     0.16300
H998        H  0.88296347  0.44250525  0.77704935     0.16800
C999        C  0.94258014  0.43903832  0.74366907    -0.09600
C1000       C  0.92551917  0.42219090  0.74387445    -0.11200
C1001       C  0.27133776  0.62530714  0.06114268    -0.12800
C1002       C  0.26808732  0.65100021  0.05445846    -0.27900
H1003       H  0.28275612  0.61219025  0.04828032     0.16300
H1004       H  0.25497110  0.66342804  0.06637319     0.16800
C1005       C  0.23136988  0.56163440  0.12637141    -0.12800
C1006       C  0.23429577  0.55539317  0.15228659    -0.27900
H1007       H  0.21988695  0.54868383  0.11339059     0.16300
H1008       H  0.24742063  0.56733070  0.16468381     0.16800
C1009       C  0.25065133  0.55213543  0.05250504    -0.09600
C1010       C  0.25084793  0.56908250  0.06946346    -0.11200
C1011       C  0.26781701  0.34106151  0.05595081    -0.12800
C1012       C  0.27106621  0.36691103  0.06204809    -0.27900
H1013       H  0.25490118  0.32879333  0.06824166     0.16300
H1014       H  0.28227042  0.37979784  0.04877208     0.16800
C1015       C  0.23173456  0.43159591  0.12652848    -0.12800
C1016       C  0.23475715  0.43813092  0.15233235    -0.27900
H1017       H  0.22009835  0.44428926  0.11345673     0.16300
H1018       H  0.24801463  0.42642370  0.16478598     0.16800
C1019       C  0.25060929  0.44037432  0.05273448    -0.09600
C1020       C  0.25094974  0.42346373  0.06972921    -0.11200
C1021       C  0.27069060  0.62449097  0.93014859    -0.12800
C1022       C  0.26721647  0.65018586  0.93670021    -0.27900
H1023       H  0.28268878  0.61164098  0.94273223     0.16300
H1024       H  0.25356508  0.66230571  0.92509616     0.16800
C1025       C  0.22885656  0.56034471  0.86660895    -0.12800
C1026       C  0.23122176  0.55428275  0.84061111    -0.27900
H1027       H  0.21786222  0.54723575  0.87984088     0.16300
H1028       H  0.24398788  0.56638455  0.82800321     0.16800
C1029       C  0.25018265  0.56808893  0.92295094    -0.09600
C1030       C  0.25032686  0.55141351  0.94018264    -0.11200
C1031       C  0.27045933  0.36693281  0.93150788    -0.12800
C1032       C  0.26704034  0.34121516  0.93808630    -0.27900
H1033       H  0.28224306  0.37986532  0.94423372     0.16300
H1034       H  0.25358181  0.32899660  0.92633234     0.16800
C1035       C  0.22915424  0.43094167  0.86740272    -0.12800
C1036       C  0.23171898  0.43706189  0.84143246    -0.27900
H1037       H  0.21784142  0.44389161  0.88052656     0.16300
H1038       H  0.24476230  0.42510357  0.82897249     0.16800
C1039       C  0.25009593  0.42336443  0.92385125    -0.09600
C1040       C  0.25019307  0.44024939  0.94086762    -0.11200
C1041       C  0.62733084  0.26815776  0.06248859    -0.12800
C1042       C  0.65321487  0.26526653  0.05630484    -0.27900
H1043       H  0.61418834  0.27907441  0.04923442     0.16300
H1044       H  0.66569855  0.25257894  0.06859708     0.16800
C1045       C  0.55749783  0.22916895  0.15283800    -0.12800
C1046       C  0.56391791  0.22667982  0.12693662    -0.27900
H1047       H  0.56901547  0.24248136  0.16542837     0.16300
H1048       H  0.55134558  0.21498888  0.11376995     0.16800
C1049       C  0.55482676  0.24577241  0.05280294    -0.09600
C1050       C  0.57149587  0.24628172  0.07005288    -0.11200
C1051       C  0.36990026  0.26642320  0.06189075    -0.12800
C1052       C  0.34408233  0.26334973  0.05537439    -0.27900
H1053       H  0.38295321  0.27802336  0.04912244     0.16300
H1054       H  0.33168800  0.25009455  0.06716203     0.16800
C1055       C  0.43408741  0.22544000  0.12607790    -0.12800
C1056       C  0.44020869  0.22781741  0.15207921    -0.27900
H1057       H  0.44720835  0.21443164  0.11286112     0.16300
H1058       H  0.42806459  0.24052275  0.16470437     0.16800
C1059       C  0.42648948  0.24635761  0.06970489    -0.09600
C1060       C  0.44344100  0.24643558  0.05273137    -0.11200
C1061       C  0.62767114  0.26688465  0.93123733    -0.12800
C1062       C  0.65339623  0.26381378  0.93806368    -0.27900
H1063       H  0.61446537  0.27848819  0.94384470     0.16300
H1064       H  0.66588862  0.25053280  0.92640696     0.16800
C1065       C  0.56424723  0.22530462  0.86667170    -0.12800
C1066       C  0.55767805  0.22882041  0.84092673    -0.27900
H1067       H  0.55151680  0.21347999  0.87955890     0.16300
H1068       H  0.56942306  0.24232151  0.82875929     0.16800
C1069       C  0.57162467  0.24545706  0.92335748    -0.09600
C1070       C  0.55475636  0.24527898  0.94040713    -0.11200
C1071       C  0.36962425  0.26623030  0.93157205    -0.12800
C1072       C  0.34369734  0.26349771  0.93777877    -0.27900
H1073       H  0.38272748  0.27748073  0.94460627     0.16300
H1074       H  0.33120104  0.25055635  0.92574506     0.16800
C1075       C  0.43384036  0.22590050  0.86702364    -0.12800
C1076       C  0.43996995  0.22889232  0.84110603    -0.27900
H1077       H  0.44690813  0.21455192  0.87998204     0.16300
H1078       H  0.42789913  0.24196043  0.82880449     0.16800
C1079       C  0.42617939  0.24595217  0.92376227    -0.09600
C1080       C  0.44314437  0.24594257  0.94073647    -0.11200
C1081       C  0.62776717  0.06344487  0.72339714    -0.12800
C1082       C  0.65358274  0.05722350  0.72683722    -0.27900
H1083       H  0.61489267  0.05041355  0.71188911     0.16300
H1084       H  0.66572516  0.06928395  0.74009630     0.16800
C1085       C  0.56365027  0.12709296  0.76500849    -0.12800
C1086       C  0.55714747  0.15288706  0.76229516    -0.27900
H1087       H  0.55105298  0.11393913  0.77667537     0.16300
H1088       H  0.56874882  0.16538762  0.74897446     0.16800
C1089       C  0.57151492  0.07057484  0.74480821    -0.09600
C1090       C  0.55470242  0.05346896  0.74508367    -0.11200
C1091       C  0.37015822  0.06283673  0.72416752    -0.12800
C1092       C  0.34443636  0.05627406  0.72746122    -0.27900
H1093       H  0.38324536  0.05001952  0.71266432     0.16300
H1094       H  0.33203524  0.06811238  0.74067709     0.16800
C1095       C  0.43376422  0.12689291  0.76565583    -0.12800
C1096       C  0.44015259  0.15268850  0.76265998    -0.27900
H1097       H  0.44647582  0.11388751  0.77734538     0.16300
H1098       H  0.42843483  0.16503216  0.74930918     0.16800
C1099       C  0.44313031  0.05328994  0.74493799    -0.09600
C1100       C  0.42632571  0.07039758  0.74503172    -0.11200
C1101       C  0.62789901  0.93256761  0.72345674    -0.12800
C1102       C  0.65364222  0.93923683  0.72694888    -0.27900
H1103       H  0.61487528  0.94542626  0.71195149     0.16300
H1104       H  0.66592099  0.92730072  0.74016634     0.16800
C1105       C  0.56426267  0.86724198  0.76395623    -0.12800
C1106       C  0.55832133  0.84120165  0.76152310    -0.27900
H1107       H  0.55115355  0.88021973  0.77524766     0.16300
H1108       H  0.57039199  0.82879388  0.74854019     0.16800
C1109       C  0.57155133  0.92421106  0.74408294    -0.09600
C1110       C  0.55474100  0.94130249  0.74425603    -0.11200
C1111       C  0.37081543  0.93128038  0.72323585    -0.12800
C1112       C  0.34531980  0.93828460  0.72745943    -0.27900
H1113       H  0.38364636  0.94376704  0.71109613     0.16300
H1114       H  0.33327130  0.92670434  0.74121718     0.16800
C1115       C  0.43467650  0.86714665  0.76433641    -0.12800
C1116       C  0.44097622  0.84130441  0.76157937    -0.27900
H1117       H  0.44749496  0.88023374  0.77584342     0.16300
H1118       H  0.42914679  0.82889096  0.74836690     0.16800
C1119       C  0.42708171  0.92361905  0.74376121    -0.09600
C1120       C  0.44374808  0.94084604  0.74388714    -0.11200
C1121       C  0.63011670  0.72902159  0.05831615    -0.12800
C1122       C  0.65578467  0.73250418  0.05147184    -0.27900
H1123       H  0.61723413  0.71672332  0.04603266     0.16300
H1124       H  0.66796801  0.74639297  0.06274767     0.16800
C1125       C  0.56532665  0.76856651  0.12269848    -0.12800
C1126       C  0.55898892  0.76480497  0.14846239    -0.27900
H1127       H  0.55213782  0.77991266  0.10985806     0.16300
H1128       H  0.57125732  0.75175430  0.16058819     0.16800
C1129       C  0.55596134  0.74745076  0.04960033    -0.09600
C1130       C  0.57315989  0.74805597  0.06630157    -0.11200
C1131       C  0.34476808  0.72809396  0.05338093    -0.12800
C1132       C  0.37052823  0.72473200  0.05983965    -0.27900
H1133       H  0.33252500  0.74149477  0.06516540     0.16300
H1134       H  0.38346219  0.71298085  0.04708677     0.16800
C1135       C  0.43462616  0.76607209  0.12367153    -0.12800
C1136       C  0.44105865  0.76305731  0.14948950    -0.27900
H1137       H  0.44739713  0.77764592  0.11059805     0.16300
H1138       H  0.42929802  0.74975843  0.16186614     0.16800
C1139       C  0.42695103  0.74544588  0.06720064    -0.09600
C1140       C  0.44384572  0.74562399  0.05014663    -0.11200
C1141       C  0.62937879  0.72537605  0.92842756    -0.12800
C1142       C  0.65549202  0.72802845  0.93390705    -0.27900
H1143       H  0.61645919  0.71485518  0.94222565     0.16300
H1144       H  0.66780863  0.74037435  0.92109257     0.16800
C1145       C  0.56451910  0.76601753  0.86463998    -0.12800
C1146       C  0.55784701  0.76321193  0.83883110    -0.27900
H1147       H  0.55201099  0.77774718  0.87782642     0.16300
H1148       H  0.56936006  0.74982736  0.82631879     0.16800
C1149       C  0.57283925  0.74637859  0.92133962    -0.09600
C1150       C  0.55588221  0.74669639  0.93832909    -0.11200
C1151       C  0.36993190  0.72577536  0.92929217    -0.12800
C1152       C  0.34403908  0.72817795  0.93583428    -0.27900
H1153       H  0.38318895  0.71428913  0.94193119     0.16300
H1154       H  0.33141178  0.74133203  0.92420769     0.16800
C1155       C  0.43401616  0.76751081  0.86522698    -0.12800
C1156       C  0.44018878  0.76458090  0.83926547    -0.27900
H1157       H  0.44721120  0.77863895  0.87827168     0.16300
H1158       H  0.42795386  0.75171202  0.82688758     0.16800
C1159       C  0.42662497  0.74573634  0.92139611    -0.09600
C1160       C  0.44369590  0.74533247  0.93824570    -0.11200
C1161       C  0.62937882  0.05986971  0.26502056    -0.12800
C1162       C  0.65527592  0.05354814  0.26204055    -0.27900
H1163       H  0.61637001  0.04691898  0.27646101     0.16300
H1164       H  0.66768010  0.06549879  0.24893811     0.16800
C1165       C  0.56450844  0.12417246  0.22524023    -0.12800
C1166       C  0.55804358  0.14996320  0.22847882    -0.27900
H1167       H  0.55161359  0.11120340  0.21368494     0.16300
H1168       H  0.56995314  0.16225166  0.24173339     0.16800
C1169       C  0.55580023  0.05042490  0.24515818    -0.09600
C1170       C  0.57266366  0.06748227  0.24508400    -0.11200
C1171       C  0.37056162  0.05900645  0.26582603    -0.12800
C1172       C  0.34468572  0.05255956  0.26325209    -0.27900
H1173       H  0.38379593  0.04632519  0.27728997     0.16300
H1174       H  0.33210491  0.06426021  0.25010940     0.16800
C1175       C  0.43410401  0.12334331  0.22421195    -0.12800
C1176       C  0.44015387  0.14920556  0.22744618    -0.27900
H1177       H  0.44728219  0.11049295  0.21285347     0.16300
H1178       H  0.42795633  0.16135563  0.24056355     0.16800
C1179       C  0.42692004  0.06688353  0.24490308    -0.09600
C1180       C  0.44397692  0.05003935  0.24495384    -0.11200
C1181       C  0.62928530  0.92921253  0.26583543    -0.12800
C1182       C  0.65500536  0.93590552  0.26252901    -0.27900
H1183       H  0.61624404  0.94183431  0.27760217     0.16300
H1184       H  0.66733878  0.92424480  0.24909613     0.16800
C1185       C  0.56528391  0.86558178  0.22398291    -0.12800
C1186       C  0.55885673  0.83976397  0.22666225    -0.27900
H1187       H  0.55236445  0.87879832  0.21277051     0.16300
H1188       H  0.57081409  0.82719128  0.23957878     0.16800
C1189       C  0.57287795  0.92161808  0.24534234    -0.09600
C1190       C  0.55594488  0.93856141  0.24544613    -0.11200
C1191       C  0.37067108  0.92920841  0.26587679    -0.12800
C1192       C  0.34480508  0.93553841  0.26305889    -0.27900
H1193       H  0.38377584  0.94205222  0.27733761     0.16300
H1194       H  0.33232034  0.92369005  0.24992987     0.16800
C1195       C  0.44111623  0.83921086  0.22785334    -0.12800
C1196       C  0.43472729  0.86503846  0.22508148    -0.27900
H1197       H  0.42931672  0.82669898  0.24098899     0.16300
H1198       H  0.44754879  0.87813932  0.21359852     0.16800
C1199       C  0.42713430  0.92149685  0.24532866    -0.09600
C1200       C  0.44413883  0.93841332  0.24523159    -0.11200
C1201       C  0.27048456  0.06237360  0.62545641    -0.12800
C1202       C  0.26733010  0.05581618  0.65125171    -0.27900
H1203       H  0.28210443  0.04961173  0.61241722     0.16300
H1204       H  0.25406783  0.06758649  0.66366075     0.16800
C1205       C  0.22907277  0.12567617  0.56075341    -0.12800
C1206       C  0.23206219  0.15142593  0.55406059    -0.27900
H1207       H  0.21758357  0.11248671  0.54802548     0.16300
H1208       H  0.24526492  0.16390715  0.56582623     0.16800
C1209       C  0.24986527  0.06929876  0.56911471    -0.09600
C1210       C  0.25012163  0.05191492  0.55259164    -0.11200
C1211       C  0.27204633  0.05933022  0.36772611    -0.12800
C1212       C  0.26878770  0.05266694  0.34195623    -0.27900
H1213       H  0.28367091  0.04665152  0.38082130     0.16300
H1214       H  0.25544203  0.06440916  0.32962959     0.16800
C1215       C  0.23259323  0.15034176  0.43646902    -0.12800
C1216       C  0.23025615  0.12426752  0.43080848    -0.27900
H1217       H  0.24553149  0.16266870  0.42426429     0.16300
H1218       H  0.21907274  0.11132602  0.44404667     0.16800
C1219       C  0.25135473  0.06776260  0.42416920    -0.09600
C1220       C  0.25133215  0.05095901  0.44126985    -0.11200
C1221       C  0.27147246  0.93043975  0.62625282    -0.12800
C1222       C  0.26800202  0.93757624  0.65182166    -0.27900
H1223       H  0.28327726  0.94284549  0.61303658     0.16300
H1224       H  0.25455120  0.92610349  0.66431163     0.16800
C1225       C  0.23114800  0.84053390  0.55712176    -0.12800
C1226       C  0.22877044  0.86644348  0.56328150    -0.27900
H1227       H  0.24398693  0.82795468  0.56915655     0.16300
H1228       H  0.21768112  0.87964248  0.55023710     0.16800
C1229       C  0.25050745  0.92247743  0.57018187    -0.09600
C1230       C  0.25062264  0.93943797  0.55325258    -0.11200
C1231       C  0.26880048  0.93512300  0.34182579    -0.12800
C1232       C  0.27164138  0.92913472  0.36779818    -0.27900
H1233       H  0.25564339  0.92310368  0.32954128     0.16300
H1234       H  0.28307342  0.94219127  0.38071469     0.16800
C1235       C  0.22969869  0.86638974  0.43280601    -0.12800
C1236       C  0.23220755  0.84055530  0.43930686    -0.27900
H1237       H  0.21843645  0.87970435  0.44560199     0.16300
H1238       H  0.24520287  0.82792384  0.42747828     0.16800
C1239       C  0.25150075  0.92229222  0.42463512    -0.09600
C1240       C  0.25170541  0.93929961  0.44155024    -0.11200
C1241       C  0.06479925  0.72568989  0.62757125    -0.12800
C1242       C  0.05807313  0.72833668  0.65336850    -0.27900
H1243       H  0.05226296  0.71409274  0.61428593     0.16300
H1244       H  0.06960110  0.74154031  0.66606486     0.16800
C1245       C  0.12812343  0.76799349  0.56359273    -0.12800
C1246       C  0.15385623  0.76467870  0.55698154    -0.27900
H1247       H  0.11501605  0.77938040  0.55070711     0.16300
H1248       H  0.16622249  0.75156330  0.56893993     0.16800
C1249       C  0.07234416  0.74582127  0.57105150    -0.09600
C1250       C  0.05553125  0.74529621  0.55395618    -0.11200
C1251       C  0.06538996  0.72283343  0.36831976    -0.12800
C1252       C  0.05886207  0.72580672  0.34245819    -0.27900
H1253       H  0.05262306  0.71125209  0.38139077     0.16300
H1254       H  0.07061354  0.73904285  0.33001440     0.16800
C1255       C  0.12860929  0.76552127  0.43257184    -0.12800
C1256       C  0.15468220  0.76391071  0.43856867    -0.27900
H1257       H  0.11514046  0.77606769  0.44581502     0.16300
H1258       H  0.16755744  0.75153491  0.42634626     0.16800
C1259       C  0.07274649  0.74311736  0.42501255    -0.09600
C1260       C  0.05577444  0.74303668  0.44198368    -0.11200
C1261       C  0.93416243  0.72670364  0.62693140    -0.12800
C1262       C  0.94031498  0.72877435  0.65293714    -0.27900
H1263       H  0.94717113  0.71567140  0.61362357     0.16300
H1264       H  0.92832750  0.74147187  0.66572087     0.16800
C1265       C  0.87028259  0.76783949  0.56258294    -0.12800
C1266       C  0.84439175  0.76490790  0.55629885    -0.27900
H1267       H  0.88337134  0.77905757  0.54951219     0.16300
H1268       H  0.83197214  0.75195902  0.56839578     0.16800
C1269       C  0.92681938  0.74751947  0.57060451    -0.09600
C1270       C  0.94385121  0.74719966  0.55371568    -0.11200
C1271       C  0.93425132  0.72370193  0.36932340    -0.12800
C1272       C  0.94113661  0.72671862  0.34360682    -0.27900
H1273       H  0.94662704  0.71186339  0.38251719     0.16300
H1274       H  0.92969649  0.74021254  0.33116026     0.16800
C1275       C  0.87011250  0.76653437  0.43247427    -0.12800
C1276       C  0.84410228  0.76406083  0.43852978    -0.27900
H1277       H  0.88321598  0.77775244  0.44553307     0.16300
H1278       H  0.83164392  0.75108129  0.42649728     0.16800
C1279       C  0.92648027  0.74501977  0.42543104    -0.09600
C1280       C  0.94357997  0.74498834  0.44225430    -0.11200
C1281       C  0.73036819  0.06261239  0.62525193    -0.12800
C1282       C  0.73248104  0.05694455  0.65137160    -0.27900
H1283       H  0.71958349  0.04918587  0.61215819     0.16300
H1284       H  0.74497292  0.06933484  0.66397886     0.16800
C1285       C  0.76744006  0.15173667  0.55295752    -0.12800
C1286       C  0.77043376  0.12605593  0.55985984    -0.27900
H1287       H  0.75426264  0.16435989  0.56458873     0.16300
H1288       H  0.78197901  0.11281754  0.54723795     0.16800
C1289       C  0.75113692  0.06946422  0.56875741    -0.09600
C1290       C  0.75121718  0.05229879  0.55200668    -0.11200
C1291       C  0.73035674  0.05936891  0.36549682    -0.12800
C1292       C  0.73282154  0.05314717  0.33953678    -0.27900
H1293       H  0.71897658  0.04654039  0.37867702     0.16300
H1294       H  0.74592244  0.06495415  0.32699506     0.16800
C1295       C  0.77116623  0.12399639  0.42930131    -0.12800
C1296       C  0.76816866  0.14991667  0.43520699    -0.27900
H1297       H  0.78242909  0.11114117  0.44254132     0.16300
H1298       H  0.75520453  0.16215260  0.42295448     0.16800
C1299       C  0.75028732  0.05110711  0.43968996    -0.09600
C1300       C  0.75043578  0.06763411  0.42230591    -0.11200
C1301       C  0.72951551  0.93241484  0.62620517    -0.12800
C1302       C  0.73231289  0.93920308  0.65199125    -0.27900
H1303       H  0.71820745  0.94513933  0.61287851     0.16300
H1304       H  0.74527474  0.92744302  0.66470219     0.16800
C1305       C  0.76984463  0.86722222  0.56264085    -0.12800
C1306       C  0.76685379  0.84135683  0.55636799    -0.27900
H1307       H  0.78126136  0.88016706  0.54960703     0.16300
H1308       H  0.75377903  0.82900808  0.56840418     0.16800
C1309       C  0.74991210  0.92386954  0.56988439    -0.09600
C1310       C  0.74993642  0.94066727  0.55279407    -0.11200
C1311       C  0.72877482  0.93035608  0.36660655    -0.12800
C1312       C  0.73170445  0.93616359  0.34056151    -0.27900
H1313       H  0.71750244  0.94362658  0.37943890     0.16300
H1314       H  0.74468123  0.92388564  0.32834963     0.16800
C1315       C  0.76879945  0.86656887  0.43191296    -0.12800
C1316       C  0.76610710  0.84072718  0.43840807    -0.27900
H1317       H  0.78015261  0.87976256  0.44475921     0.16300
H1318       H  0.75308010  0.82814832  0.42655205     0.16800
C1319       C  0.74871116  0.92304381  0.42361881    -0.09600
C1320       C  0.74890604  0.93997288  0.44062931    -0.11200
loop_ 
_geom_bond_atom_site_label_1 
_geom_bond_atom_site_label_2 
_geom_bond_distance 
_geom_bond_site_symmetry_2 
_ccdc_geom_bond_type 
N1            C5   1.353       .  A
N1            C2   1.354       .  A
N1         C1319   1.404       .  S
C2            C3   1.386       .  A
C2         C1311   1.489       .  S
C3            C4   1.382       .  A
C3            H6   1.082       .  S
C4            C5   1.385       .  A
C4            H7   1.082       .  S
C5         C1315   1.489       .  S
N8           C12   1.352       .  A
N8            C9   1.352       .  A
N8         C1309   1.403       .  S
C9           C10   1.386       .  A
C9         C1301   1.488       .  S
C10          C11   1.383       .  A
C10          H13   1.082       .  S
C11          C12   1.386       .  A
C11          H14   1.082       .  S
C12        C1305   1.488       .  S
N15          C19   1.352       .  A
N15          C16   1.353       .  A
N15        C1300   1.404       .  S
C16          C17   1.386       .  A
C16        C1291   1.487       .  S
C17          C18   1.381       .  A
C17          H20   1.082       .  S
C18          C19   1.385       .  A
C18          H21   1.082       .  S
C19        C1295   1.485       .  S
N22          C26   1.352       .  A
N22          C23   1.352       .  A
N22        C1289   1.404       .  S
C23          C24   1.386       .  A
C23        C1281   1.487       .  S
C24          C25   1.383       .  A
C24          H27   1.082       .  S
C25          C26   1.386       .  A
C25          H28   1.082       .  S
C26        C1286   1.487       .  S
O29         Ni37   1.916   1_545  S
O29          C39   1.279       .  A
O30         Ni37   1.916       .  S
O30          C40   1.279       .  A
O31         Ni37   1.916       .  S
O31          C41   1.279       .  A
O32         Ni37   1.916   1_545  S
O32          C42   1.279       .  A
O33         Ni38   1.916   1_545  S
O33          C42   1.280       .  A
O34         Ni38   1.915       .  S
O34          C41   1.279       .  A
O35         Ni38   1.917       .  S
O35          C40   1.280       .  A
O36         Ni38   1.917   1_545  S
O36          C39   1.279       .  A
Ni37        Ni38   2.395       .  S
C39        C1290   1.432       .  S
C40        C1320   1.433       .  S
C41        C1310   1.431       .  S
C42        C1299   1.433       .  S
N43          C47   1.353       .  A
N43          C44   1.352       .  A
N43        C1279   1.403       .  S
C44          C45   1.385       .  A
C44        C1271   1.487       .  S
C45          C46   1.382       .  A
C45          H48   1.082       .  S
C46          C47   1.386       .  A
C46          H49   1.082       .  S
C47        C1275   1.488       .  S
N50          C54   1.352       .  A
N50          C51   1.352       .  A
N50        C1269   1.403       .  S
C51          C52   1.385       .  A
C51        C1261   1.487       .  S
C52          C53   1.382       .  A
C52          H55   1.082       .  S
C53          C54   1.386       .  A
C53          H56   1.082       .  S
C54        C1265   1.488       .  S
N57          C61   1.353       .  A
N57          C58   1.353       .  A
N57        C1259   1.404       .  S
C58          C59   1.385       .  A
C58        C1251   1.488       .  S
C59          C60   1.382       .  A
C59          H62   1.082       .  S
C60          C61   1.386       .  A
C60          H63   1.082       .  S
C61        C1255   1.489       .  S
N64          C68   1.351       .  A
N64          C65   1.351       .  A
N64        C1249   1.403       .  S
C65          C66   1.386       .  A
C65        C1241   1.485       .  S
C66          C67   1.382       .  A
C66          H69   1.082       .  S
C67          C68   1.385       .  A
C67          H70   1.082       .  S
C68        C1245   1.485       .  S
O71         Ni79   1.915       .  S
O71          C81   1.279       .  A
O72         Ni79   1.915   1_655  S
O72          C82   1.279       .  A
O73         Ni79   1.915   1_655  S
O73          C83   1.279       .  A
O74         Ni79   1.915       .  S
O74          C84   1.279       .  A
O75         Ni80   1.917   1_455  S
O75          C84   1.280       .  A
O76         Ni80   1.915       .  S
O76          C83   1.279       .  A
O77         Ni80   1.916       .  S
O77          C82   1.279       .  A
O78         Ni80   1.916   1_455  S
O78          C81   1.279       .  A
Ni79        Ni80   2.395   1_455  S
C81        C1250   1.431       .  S
C82        C1280   1.432       .  S
C83        C1270   1.431       .  S
C84        C1260   1.432       .  S
N85          C89   1.352       .  A
N85          C86   1.353       .  A
N85        C1239   1.404       .  S
C86          C87   1.386       .  A
C86        C1232   1.487       .  S
C87          C88   1.382       .  A
C87          H90   1.082       .  S
C88          C89   1.385       .  A
C88          H91   1.082       .  S
C89        C1235   1.487       .  S
N92          C96   1.351       .  A
N92          C93   1.351       .  A
N92        C1229   1.403       .  S
C93          C94   1.385       .  A
C93        C1221   1.484       .  S
C94          C95   1.382       .  A
C94          H97   1.082       .  S
C95          C96   1.386       .  A
C95          H98   1.082       .  S
C96        C1226   1.485       .  S
N99         C103   1.353       .  A
N99         C100   1.353       .  A
N99        C1219   1.404       .  S
C100        C101   1.386       .  A
C100       C1216   1.488       .  S
C101        C102   1.381       .  A
C101        H104   1.082       .  S
C102        C103   1.385       .  A
C102        H105   1.082       .  S
C103       C1211   1.488       .  S
N106        C110   1.352       .  A
N106        C107   1.353       .  A
N106       C1209   1.403       .  S
C107        C108   1.386       .  A
C107       C1205   1.488       .  S
C108        C109   1.383       .  A
C108        H111   1.082       .  S
C109        C110   1.385       .  A
C109        H112   1.082       .  S
C110       C1201   1.487       .  S
O113       Ni121   1.917   1_545  S
O113        C123   1.280       .  A
O114       Ni121   1.917       .  S
O114        C124   1.280       .  A
O115       Ni121   1.916   1_545  S
O115        C125   1.279       .  A
O116       Ni121   1.916       .  S
O116        C126   1.279       .  A
O117       Ni122   1.916       .  S
O117        C126   1.279       .  A
O118       Ni122   1.915   1_545  S
O118        C125   1.279       .  A
O119       Ni122   1.915       .  S
O119        C124   1.279       .  A
O120       Ni122   1.916   1_545  S
O120        C123   1.279       .  A
Ni121      Ni122   2.395       .  S
C123       C1210   1.432       .  S
C124       C1240   1.432       .  S
C125       C1220   1.432       .  S
C126       C1230   1.432       .  S
N127        C131   1.352       .  A
N127        C128   1.352       .  A
N127       C1199   1.404       .  S
C128        C129   1.385       .  A
C128       C1196   1.485       .  S
C129        C130   1.382       .  A
C129        H132   1.082       .  S
C130        C131   1.385       .  A
C130        H133   1.082       .  S
C131       C1191   1.485       .  S
N134        C138   1.351       .  A
N134        C135   1.351       .  A
N134       C1189   1.403       .  S
C135        C136   1.386       .  A
C135       C1185   1.486       .  S
C136        C137   1.382       .  A
C136        H139   1.082       .  S
C137        C138   1.386       .  A
C137        H140   1.082       .  S
C138       C1181   1.486       .  S
N141        C145   1.352       .  A
N141        C142   1.352       .  A
N141       C1179   1.404       .  S
C142        C143   1.385       .  A
C142       C1175   1.486       .  S
C143        C144   1.381       .  A
C143        H146   1.082       .  S
C144        C145   1.385       .  A
C144        H147   1.082       .  S
C145       C1171   1.486       .  S
N148        C152   1.353       .  A
N148        C149   1.353       .  A
N148       C1170   1.404       .  S
C149        C150   1.386       .  A
C149       C1165   1.489       .  S
C150        C151   1.383       .  A
C150        H153   1.082       .  S
C151        C152   1.385       .  A
C151        H154   1.082       .  S
C152       C1161   1.488       .  S
O155       Ni163   1.916   1_545  S
O155        C165   1.279       .  A
O156       Ni163   1.916       .  S
O156        C166   1.279       .  A
O157       Ni163   1.916   1_545  S
O157        C167   1.279       .  A
O158       Ni163   1.915       .  S
O158        C168   1.279       .  A
O159       Ni164   1.915       .  S
O159        C168   1.279       .  A
O160       Ni164   1.916   1_545  S
O160        C167   1.279       .  A
O161       Ni164   1.916       .  S
O161        C166   1.279       .  A
O162       Ni164   1.917   1_545  S
O162        C165   1.279       .  A
Ni163      Ni164   2.395       .  S
C165       C1169   1.433       .  S
C166       C1200   1.433       .  S
C167       C1180   1.432       .  S
C168       C1190   1.431       .  S
N169        C173   1.353       .  A
N169        C170   1.353       .  A
N169       C1159   1.403       .  S
C170        C171   1.385       .  A
C170       C1155   1.489       .  S
C171        C172   1.383       .  A
C171        H174   1.082       .  S
C172        C173   1.386       .  A
C172        H175   1.082       .  S
C173       C1151   1.490       .  S
N176        C180   1.353       .  A
N176        C177   1.352       .  A
N176       C1149   1.404       .  S
C177        C178   1.386       .  A
C177       C1145   1.488       .  S
C178        C179   1.381       .  A
C178        H181   1.082       .  S
C179        C180   1.385       .  A
C179        H182   1.082       .  S
C180       C1141   1.487       .  S
N183        C187   1.351       .  A
N183        C184   1.351       .  A
N183       C1139   1.404       .  S
C184        C185   1.386       .  A
C184       C1135   1.485       .  S
C185        C186   1.381       .  A
C185        H188   1.082       .  S
C186        C187   1.385       .  A
C186        H189   1.082       .  S
C187       C1132   1.483       .  S
N190        C194   1.352       .  A
N190        C191   1.351       .  A
N190       C1130   1.403       .  S
C191        C192   1.385       .  A
C191       C1125   1.486       .  S
C192        C193   1.382       .  A
C192        H195   1.082       .  S
C193        C194   1.386       .  A
C193        H196   1.082       .  S
C194       C1121   1.486       .  S
O197       Ni205   1.914   1_554  S
O197        C207   1.279       .  A
O198       Ni205   1.914       .  S
O198        C208   1.279       .  A
O199       Ni205   1.917   1_554  S
O199        C209   1.280       .  A
O200       Ni205   1.917       .  S
O200        C210   1.280       .  A
O201       Ni206   1.915       .  S
O201        C210   1.279       .  A
O202       Ni206   1.916   1_554  S
O202        C209   1.279       .  A
O203       Ni206   1.917       .  S
O203        C208   1.280       .  A
O204       Ni206   1.916   1_554  S
O204        C207   1.279       .  A
Ni205      Ni206   2.395       .  S
C207       C1129   1.431       .  S
C208       C1160   1.432       .  S
C209       C1140   1.433       .  S
C210       C1150   1.433       .  S
N211        C215   1.351       .  A
N211        C212   1.352       .  A
N211       C1119   1.403       .  S
C212        C213   1.386       .  A
C212       C1115   1.486       .  S
C213        C214   1.382       .  A
C213        H216   1.082       .  S
C214        C215   1.385       .  A
C214        H217   1.082       .  S
C215       C1111   1.484       .  S
N218        C222   1.353       .  A
N218        C219   1.354       .  A
N218       C1109   1.404       .  S
C219        C220   1.386       .  A
C219       C1105   1.491       .  S
C220        C221   1.383       .  A
C220        H223   1.082       .  S
C221        C222   1.385       .  A
C221        H224   1.082       .  S
C222       C1101   1.489       .  S
N225        C229   1.351       .  A
N225        C226   1.351       .  A
N225       C1100   1.404       .  S
C226        C227   1.386       .  A
C226       C1095   1.484       .  S
C227        C228   1.381       .  A
C227        H230   1.082       .  S
C228        C229   1.385       .  A
C228        H231   1.082       .  S
C229       C1091   1.483       .  S
N232        C236   1.352       .  A
N232        C233   1.352       .  A
N232       C1089   1.404       .  S
C233        C234   1.386       .  A
C233       C1085   1.485       .  S
C234        C235   1.381       .  A
C234        H237   1.082       .  S
C235        C236   1.385       .  A
C235        H238   1.082       .  S
C236       C1081   1.485       .  S
O239       Ni247   1.916   1_545  S
O239        C249   1.279       .  A
O240       Ni247   1.916       .  S
O240        C250   1.279       .  A
O241       Ni247   1.917   1_545  S
O241        C251   1.280       .  A
O242       Ni247   1.915       .  S
O242        C252   1.279       .  A
O243       Ni248   1.915       .  S
O243        C252   1.279       .  A
O244       Ni248   1.916   1_545  S
O244        C251   1.279       .  A
O245       Ni248   1.917       .  S
O245        C250   1.280       .  A
O246       Ni248   1.918   1_545  S
O246        C249   1.280       .  A
Ni247      Ni248   2.395       .  S
C249       C1099   1.433       .  S
C250       C1110   1.433       .  S
C251       C1090   1.433       .  S
C252       C1120   1.431       .  S
N253        C257   1.352       .  A
N253        C254   1.352       .  A
N253       C1079   1.404       .  S
C254        C255   1.385       .  A
C254       C1071   1.486       .  S
C255        C256   1.381       .  A
C255        H258   1.082       .  S
C256        C257   1.386       .  A
C256        H259   1.082       .  S
C257       C1075   1.486       .  S
N260        C264   1.352       .  A
N260        C261   1.352       .  A
N260       C1069   1.403       .  S
C261        C262   1.385       .  A
C261       C1061   1.487       .  S
C262        C263   1.383       .  A
C262        H265   1.082       .  S
C263        C264   1.385       .  A
C263        H266   1.082       .  S
C264       C1065   1.487       .  S
N267        C271   1.352       .  A
N267        C268   1.352       .  A
N267       C1059   1.403       .  S
C268        C269   1.386       .  A
C268       C1055   1.488       .  S
C269        C270   1.382       .  A
C269        H272   1.082       .  S
C270        C271   1.385       .  A
C270        H273   1.082       .  S
C271       C1051   1.487       .  S
N274        C278   1.351       .  A
N274        C275   1.352       .  A
N274       C1050   1.404       .  S
C275        C276   1.386       .  A
C275       C1046   1.485       .  S
C276        C277   1.381       .  A
C276        H279   1.082       .  S
C277        C278   1.385       .  A
C277        H280   1.082       .  S
C278       C1041   1.484       .  S
O281       Ni289   1.915   1_554  S
O281        C291   1.279       .  A
O282       Ni289   1.916       .  S
O282        C292   1.279       .  A
O283       Ni289   1.916   1_554  S
O283        C293   1.279       .  A
O284       Ni289   1.916       .  S
O284        C294   1.279       .  A
O285       Ni290   1.916       .  S
O285        C294   1.279       .  A
O286       Ni290   1.916   1_554  S
O286        C293   1.279       .  A
O287       Ni290   1.915       .  S
O287        C292   1.279       .  A
O288       Ni290   1.915   1_554  S
O288        C291   1.279       .  A
Ni289      Ni290   2.395       .  S
C291       C1060   1.431       .  S
C292       C1070   1.431       .  S
C293       C1049   1.432       .  S
C294       C1080   1.433       .  S
N295        C299   1.352       .  A
N295        C296   1.352       .  A
N295       C1039   1.403       .  S
C296        C297   1.386       .  A
C296       C1035   1.488       .  S
C297        C298   1.382       .  A
C297        H300   1.082       .  S
C298        C299   1.385       .  A
C298        H301   1.082       .  S
C299       C1031   1.487       .  S
N302        C306   1.351       .  A
N302        C303   1.352       .  A
N302       C1029   1.404       .  S
C303        C304   1.386       .  A
C303       C1025   1.486       .  S
C304        C305   1.381       .  A
C304        H307   1.082       .  S
C305        C306   1.385       .  A
C305        H308   1.082       .  S
C306       C1021   1.484       .  S
N309        C313   1.352       .  A
N309        C310   1.351       .  A
N309       C1020   1.404       .  S
C310        C311   1.386       .  A
C310       C1015   1.485       .  S
C311        C312   1.382       .  A
C311        H314   1.082       .  S
C312        C313   1.385       .  A
C312        H315   1.082       .  S
C313       C1012   1.485       .  S
N316        C320   1.352       .  A
N316        C317   1.352       .  A
N316       C1010   1.403       .  S
C317        C318   1.386       .  A
C317       C1005   1.487       .  S
C318        C319   1.383       .  A
C318        H321   1.082       .  S
C319        C320   1.385       .  A
C319        H322   1.082       .  S
C320       C1001   1.487       .  S
O323       Ni331   1.915       .  S
O323        C333   1.279       .  A
O324       Ni331   1.915   1_554  S
O324        C334   1.279       .  A
O325       Ni331   1.916       .  S
O325        C335   1.279       .  A
O326       Ni331   1.917   1_554  S
O326        C336   1.280       .  A
O327       Ni332   1.916   1_554  S
O327        C336   1.279       .  A
O328       Ni332   1.916       .  S
O328        C335   1.279       .  A
O329       Ni332   1.915   1_554  S
O329        C334   1.279       .  A
O330       Ni332   1.915       .  S
O330        C333   1.279       .  A
Ni331      Ni332   2.395       .  S
C333       C1040   1.431       .  S
C334       C1009   1.431       .  S
C335       C1030   1.433       .  S
C336       C1019   1.433       .  S
N337        C341   1.352       .  A
N337        C338   1.352       .  A
N337       C1000   1.403       .  S
C338        C339   1.386       .  A
C338        C996   1.487       .  S
C339        C340   1.382       .  A
C339        H342   1.082       .  S
C340        C341   1.386       .  A
C340        H343   1.082       .  S
C341        C991   1.487       .  S
N344        C348   1.351       .  A
N344        C345   1.351       .  A
N344        C989   1.403       .  S
C345        C346   1.386       .  A
C345        C985   1.485       .  S
C346        C347   1.381       .  A
C346        H349   1.082       .  S
C347        C348   1.385       .  A
C347        H350   1.082       .  S
C348        C981   1.484       .  S
N351        C355   1.351       .  A
N351        C352   1.352       .  A
N351        C979   1.402       .  S
C352        C353   1.386       .  A
C352        C975   1.488       .  S
C353        C354   1.383       .  A
C353        H356   1.082       .  S
C354        C355   1.385       .  A
C354        H357   1.082       .  S
C355        C972   1.487       .  S
N358        C362   1.351       .  A
N358        C359   1.352       .  A
N358        C970   1.403       .  S
C359        C360   1.386       .  A
C359        C965   1.486       .  S
C360        C361   1.381       .  A
C360        H363   1.082       .  S
C361        C362   1.385       .  A
C361        H364   1.082       .  S
C362        C961   1.485       .  S
O365       Ni373   1.914   1_455  S
O365        C375   1.279       .  A
O366       Ni373   1.915       .  S
O366        C376   1.279       .  A
O367       Ni373   1.914   1_455  S
O367        C377   1.279       .  A
O368       Ni373   1.915       .  S
O368        C378   1.279       .  A
O369       Ni374   1.915       .  S
O369        C378   1.279       .  A
O370       Ni374   1.915   1_455  S
O370        C377   1.279       .  A
O371       Ni374   1.917       .  S
O371        C376   1.280       .  A
O372       Ni374   1.916   1_455  S
O372        C375   1.280       .  A
Ni373      Ni374   2.395       .  S
C375        C969   1.432       .  S
C376        C999   1.432       .  S
C377        C980   1.430       .  S
C378        C990   1.431       .  S
N379        C383   1.352       .  A
N379        C380   1.353       .  A
N379        C959   1.406       .  S
C380        C381   1.386       .  A
C380        C955   1.486       .  S
C381        C382   1.379       .  A
C381        H384   1.082       .  S
C382        C383   1.385       .  A
C382        H385   1.082       .  S
C383        C951   1.483       .  S
N386        C390   1.354       .  A
N386        C387   1.353       .  A
N386        C949   1.406       .  S
C387        C388   1.385       .  A
C387        C946   1.484       .  S
C388        C389   1.379       .  A
C388        H391   1.082       .  S
C389        C390   1.386       .  A
C389        H392   1.082       .  S
C390        C941   1.486       .  S
N393        C397   1.357       .  A
N393        C394   1.359       .  A
N393        C939   1.409       .  S
C394        C395   1.381       .  A
C394        C935   1.484       .  S
C395        C396   1.377       .  A
C395        H398   1.082       .  S
C396        C397   1.385       .  A
C396        H399   1.082       .  S
C397        C931   1.489       .  S
N400        C404   1.352       .  A
N400        C401   1.350       .  A
N400        C930   1.404       .  S
C401        C402   1.384       .  A
C401        C925   1.483       .  S
C402        C403   1.382       .  A
C402        H405   1.082       .  S
C403        C404   1.387       .  A
C403        H406   1.082       .  S
C404        C922   1.486       .  S
O407       Ni415   1.919       .  S
O407        C417   1.280       .  A
O408       Ni415   1.923   1_554  S
O408        C418   1.281       .  A
O409       Ni415   1.916       .  S
O409        C419   1.279       .  A
O410       Ni415   1.913   1_554  S
O410        C420   1.279       .  A
O411       Ni416   1.919   1_554  S
O411        C420   1.280       .  A
O412       Ni416   1.921       .  S
O412        C419   1.281       .  A
O413       Ni416   1.924   1_554  S
O413        C418   1.281       .  A
O414       Ni416   1.920       .  S
O414        C417   1.280       .  A
Ni415      Ni416   2.393       .  S
C417        C950   1.437       .  S
C418        C940   1.442       .  S
C419        C960   1.436       .  S
C420        C929   1.433       .  S
N421        C425   1.354       .  A
N421        C422   1.353       .  A
N421        C919   1.404       .  S
C422        C423   1.386       .  A
C422        C911   1.490       .  S
C423        C424   1.382       .  A
C423        H426   1.082       .  S
C424        C425   1.386       .  A
C424        H427   1.082       .  S
C425        C916   1.491       .  S
N428        C432   1.352       .  A
N428        C429   1.353       .  A
N428        C909   1.403       .  S
C429        C430   1.386       .  A
C429        C905   1.489       .  S
C430        C431   1.385       .  A
C430        H433   1.082       .  S
C431        C432   1.385       .  A
C431        H434   1.082       .  S
C432        C901   1.488       .  S
N435        C439   1.352       .  A
N435        C436   1.352       .  A
N435        C899   1.402       .  S
C436        C437   1.386       .  A
C436        C891   1.489       .  S
C437        C438   1.383       .  A
C437        H440   1.082       .  S
C438        C439   1.385       .  A
C438        H441   1.082       .  S
C439        C895   1.488       .  S
N442        C446   1.352       .  A
N442        C443   1.352       .  A
N442        C890   1.403       .  S
C443        C444   1.386       .  A
C443        C886   1.488       .  S
C444        C445   1.383       .  A
C444        H447   1.082       .  S
C445        C446   1.385       .  A
C445        H448   1.082       .  S
C446        C882   1.488       .  S
O449       Ni457   1.913       .  S
O449        C459   1.279       .  A
O450       Ni457   1.914   1_655  S
O450        C460   1.279       .  A
O451       Ni457   1.916   1_655  S
O451        C461   1.279       .  A
O452       Ni457   1.916       .  S
O452        C462   1.279       .  A
O453       Ni458   1.913       .  S
O453        C462   1.279       .  A
O454       Ni458   1.914   1_655  S
O454        C461   1.279       .  A
O455       Ni458   1.918   1_655  S
O455        C460   1.280       .  A
O456       Ni458   1.917       .  S
O456        C459   1.280       .  A
Ni457      Ni458   2.395       .  S
C459        C889   1.431       .  S
C460        C920   1.432       .  S
C461        C910   1.431       .  S
C462        C900   1.430       .  S
N463        C467   1.352       .  A
N463        C464   1.352       .  A
N463        C879   1.403       .  S
C464        C465   1.385       .  A
C464        C871   1.487       .  S
C465        C466   1.382       .  A
C465        H468   1.082       .  S
C466        C467   1.386       .  A
C466        H469   1.082       .  S
C467        C875   1.487       .  S
N470        C474   1.351       .  A
N470        C471   1.351       .  A
N470        C869   1.403       .  S
C471        C472   1.386       .  A
C471        C861   1.485       .  S
C472        C473   1.381       .  A
C472        H475   1.082       .  S
C473        C474   1.385       .  A
C473        H476   1.082       .  S
C474        C866   1.484       .  S
N477        C481   1.352       .  A
N477        C478   1.352       .  A
N477        C859   1.402       .  S
C478        C479   1.386       .  A
C478        C851   1.488       .  S
C479        C480   1.383       .  A
C479        H482   1.082       .  S
C480        C481   1.386       .  A
C480        H483   1.082       .  S
C481        C855   1.489       .  S
N484        C488   1.353       .  A
N484        C485   1.353       .  A
N484        C849   1.404       .  S
C485        C486   1.386       .  A
C485        C841   1.488       .  S
C486        C487   1.382       .  A
C486        H489   1.082       .  S
C487        C488   1.386       .  A
C487        H490   1.082       .  S
C488        C845   1.488       .  S
O491       Ni499   1.915       .  S
O491        C501   1.279       .  A
O492       Ni499   1.915   1_655  S
O492        C502   1.279       .  A
O493       Ni499   1.915   1_655  S
O493        C503   1.279       .  A
O494       Ni499   1.916       .  S
O494        C504   1.279       .  A
O495       Ni500   1.917       .  S
O495        C504   1.280       .  A
O496       Ni500   1.917   1_655  S
O496        C503   1.280       .  A
O497       Ni500   1.915   1_655  S
O497        C502   1.279       .  A
O498       Ni500   1.915       .  S
O498        C501   1.279       .  A
Ni499      Ni500   2.395       .  S
C501        C860   1.430       .  S
C502        C870   1.431       .  S
C503        C880   1.432       .  S
C504        C850   1.433       .  S
O505       Ni513   1.918       .  S
O505        C515   1.280       .  A
O506       Ni513   1.918   1_655  S
O506        C516   1.280       .  A
O507       Ni513   1.919   1_655  S
O507        C517   1.281       .  A
O508       Ni513   1.918       .  S
O508        C518   1.280       .  A
O509       Ni514   1.931       .  S
O509        C518   1.284       .  A
O510       Ni514   1.932   1_655  S
O510        C517   1.284       .  A
O511       Ni514   1.930   1_655  S
O511        C516   1.283       .  A
O512       Ni514   1.931       .  S
O512        C515   1.284       .  A
Ni513      Ni514   2.388       .  S
C515        C892   1.480       .  S
C516        C872   1.479       .  S
C517        C912   1.481       .  S
C518        C852   1.480       .  S
O519       Ni527   1.925       .  S
O519        C529   1.283       .  A
O520       Ni527   1.925       .  S
O520        C530   1.283       .  A
O521       Ni527   1.929       .  S
O521        C531   1.283       .  A
O522       Ni527   1.929       .  S
O522        C532   1.283       .  A
O523       Ni528   1.918       .  S
O523        C532   1.281       .  A
O524       Ni528   1.918       .  S
O524        C531   1.281       .  A
O525       Ni528   1.917       .  S
O525        C530   1.280       .  A
O526       Ni528   1.918       .  S
O526        C529   1.280       .  A
Ni527      Ni528   2.389       .  S
C529       C1296   1.477       .  S
C530        C865   1.476       .  S
C531       C1285   1.479       .  S
C532        C876   1.478       .  S
O533       Ni541   1.919       .  S
O533        C543   1.281       .  A
O534       Ni541   1.919       .  S
O534        C544   1.281       .  A
O535       Ni541   1.918       .  S
O535        C545   1.281       .  A
O536       Ni541   1.918       .  S
O536        C546   1.280       .  A
O537       Ni542   1.932       .  S
O537        C546   1.284       .  A
O538       Ni542   1.931       .  S
O538        C545   1.284       .  A
O539       Ni542   1.929       .  S
O539        C544   1.283       .  A
O540       Ni542   1.930       .  S
O540        C543   1.283       .  A
Ni541      Ni542   2.388       .  S
C543       C1215   1.479       .  S
C544        C846   1.480       .  S
C545       C1206   1.480       .  S
C546        C856   1.480       .  S
O547       Ni555   1.933       .  S
O547        C557   1.284       .  A
O548       Ni555   1.931       .  S
O548        C558   1.284       .  A
O549       Ni555   1.922       .  S
O549        C559   1.282       .  A
O550       Ni555   1.923       .  S
O550        C560   1.281       .  A
O551       Ni556   1.932       .  S
O551        C560   1.285       .  A
O552       Ni556   1.929       .  S
O552        C559   1.283       .  A
O553       Ni556   1.912       .  S
O553        C558   1.278       .  A
O554       Ni556   1.917       .  S
O554        C557   1.280       .  A
Ni555      Ni556   2.388       .  S
C557        C915   1.480       .  S
C558        C926   1.475       .  S
C559        C906   1.483       .  S
C560        C936   1.487       .  S
O561       Ni569   1.930       .  S
O561        C571   1.283       .  A
O562       Ni569   1.928       .  S
O562        C572   1.283       .  A
O563       Ni569   1.928       .  S
O563        C573   1.283       .  A
O564       Ni569   1.927       .  S
O564        C574   1.283       .  A
O565       Ni570   1.921       .  S
O565        C574   1.281       .  A
O566       Ni570   1.922       .  S
O566        C573   1.282       .  A
O567       Ni570   1.917       .  S
O567        C572   1.280       .  A
O568       Ni570   1.918       .  S
O568        C571   1.280       .  A
Ni569      Ni570   2.389       .  S
C571        C885   1.479       .  S
C572       C1016   1.477       .  S
C573        C896   1.481       .  S
C574       C1006   1.480       .  S
O575       Ni583   1.924       .  S
O575        C585   1.283       .  A
O576       Ni583   1.927   1_554  S
O576        C586   1.283       .  A
O577       Ni583   1.929   1_554  S
O577        C587   1.283       .  A
O578       Ni583   1.930       .  S
O578        C588   1.283       .  A
O579       Ni584   1.919       .  S
O579        C588   1.281       .  A
O580       Ni584   1.919   1_554  S
O580        C587   1.281       .  A
O581       Ni584   1.916   1_554  S
O581        C586   1.280       .  A
O582       Ni584   1.915       .  S
O582        C585   1.280       .  A
Ni583      Ni584   2.389       .  S
C585        C952   1.474       .  S
C586       C1042   1.476       .  S
C587        C932   1.479       .  S
C588       C1062   1.480       .  S
O589       Ni597   1.918       .  S
O589        C599   1.281       .  A
O590       Ni597   1.916       .  S
O590        C600   1.280       .  A
O591       Ni597   1.914       .  S
O591        C601   1.279       .  A
O592       Ni597   1.913       .  S
O592        C602   1.280       .  A
O593       Ni598   1.930       .  S
O593        C602   1.283       .  A
O594       Ni598   1.930       .  S
O594        C601   1.284       .  A
O595       Ni598   1.927       .  S
O595        C600   1.283       .  A
O596       Ni598   1.929       .  S
O596        C599   1.283       .  A
Ni597      Ni598   2.390       .  S
C599        C995   1.479       .  S
C600        C945   1.476       .  S
C601        C986   1.477       .  S
C602        C956   1.475       .  S
O603       Ni611   1.920   1_455  S
O603        C613   1.281       .  A
O604       Ni611   1.919       .  S
O604        C614   1.281       .  A
O605       Ni611   1.915       .  S
O605        C615   1.280       .  A
O606       Ni611   1.916   1_455  S
O606        C616   1.280       .  A
O607       Ni612   1.930   1_455  S
O607        C616   1.284       .  A
O608       Ni612   1.929       .  S
O608        C615   1.283       .  A
O609       Ni612   1.929       .  S
O609        C614   1.283       .  A
O610       Ni612   1.928   1_455  S
O610        C613   1.283       .  A
Ni611      Ni612   2.389       .  S
C613        C842   1.480       .  S
C614        C992   1.479       .  S
C615        C862   1.476       .  S
C616        C971   1.479       .  S
O617       Ni625   1.917       .  S
O617        C627   1.280       .  A
O618       Ni625   1.917       .  S
O618        C628   1.280       .  A
O619       Ni625   1.918       .  S
O619        C629   1.281       .  A
O620       Ni625   1.917       .  S
O620        C630   1.280       .  A
O621       Ni626   1.928       .  S
O621        C630   1.283       .  A
O622       Ni626   1.930       .  S
O622        C629   1.283       .  A
O623       Ni626   1.930       .  S
O623        C628   1.283       .  A
O624       Ni626   1.929       .  S
O624        C627   1.283       .  A
Ni625      Ni626   2.389       .  S
C627        C966   1.478       .  S
C628       C1036   1.479       .  S
C629        C976   1.479       .  S
C630       C1026   1.477       .  S
O631       Ni639   1.926       .  S
O631        C641   1.283       .  A
O632       Ni639   1.926   1_554  S
O632        C642   1.283       .  A
O633       Ni639   1.928   1_554  S
O633        C643   1.283       .  A
O634       Ni639   1.929       .  S
O634        C644   1.283       .  A
O635       Ni640   1.919       .  S
O635        C644   1.281       .  A
O636       Ni640   1.919   1_554  S
O636        C643   1.281       .  A
O637       Ni640   1.918   1_554  S
O637        C642   1.281       .  A
O638       Ni640   1.918       .  S
O638        C641   1.281       .  A
Ni639      Ni640   2.389       .  S
C641       C1072   1.478       .  S
C642       C1011   1.477       .  S
C643       C1052   1.479       .  S
C644       C1032   1.479       .  S
O645       Ni653   1.928       .  S
O645        C655   1.283       .  A
O646       Ni653   1.929       .  S
O646        C656   1.283       .  A
O647       Ni653   1.926       .  S
O647        C657   1.283       .  A
O648       Ni653   1.927       .  S
O648        C658   1.283       .  A
O649       Ni654   1.918       .  S
O649        C658   1.281       .  A
O650       Ni654   1.917       .  S
O650        C657   1.280       .  A
O651       Ni654   1.917       .  S
O651        C656   1.280       .  A
O652       Ni654   1.915       .  S
O652        C655   1.280       .  A
Ni653      Ni654   2.389       .  S
C655       C1086   1.476       .  S
C656       C1076   1.477       .  S
C657       C1096   1.476       .  S
C658       C1066   1.478       .  S
O659       Ni667   1.920       .  S
O659        C669   1.281       .  A
O660       Ni667   1.919       .  S
O660        C670   1.281       .  A
O661       Ni667   1.917       .  S
O661        C671   1.280       .  A
O662       Ni667   1.917       .  S
O662        C672   1.280       .  A
O663       Ni668   1.928       .  S
O663        C672   1.283       .  A
O664       Ni668   1.928       .  S
O664        C671   1.283       .  A
O665       Ni668   1.929       .  S
O665        C670   1.283       .  A
O666       Ni668   1.930       .  S
O666        C669   1.283       .  A
Ni667      Ni668   2.389       .  S
C669       C1166   1.481       .  S
C670       C1056   1.480       .  S
C671       C1176   1.477       .  S
C672       C1045   1.477       .  S
O673       Ni681   1.914   1_545  S
O673        C683   1.279       .  A
O674       Ni681   1.915       .  S
O674        C684   1.280       .  A
O675       Ni681   1.919       .  S
O675        C685   1.281       .  A
O676       Ni681   1.920   1_545  S
O676        C686   1.281       .  A
O677       Ni682   1.927   1_545  S
O677        C686   1.283       .  A
O678       Ni682   1.926       .  S
O678        C685   1.283       .  A
O679       Ni682   1.927       .  S
O679        C684   1.283       .  A
O680       Ni682   1.926   1_545  S
O680        C683   1.283       .  A
Ni681      Ni682   2.389       .  S
C683       C1092   1.475       .  S
C684       C1222   1.477       .  S
C685       C1112   1.478       .  S
C686       C1202   1.480       .  S
O687       Ni695   1.931       .  S
O687        C697   1.284       .  A
O688       Ni695   1.931       .  S
O688        C698   1.284       .  A
O689       Ni695   1.930       .  S
O689        C699   1.283       .  A
O690       Ni695   1.929       .  S
O690        C700   1.283       .  A
O691       Ni696   1.923       .  S
O691        C700   1.282       .  A
O692       Ni696   1.923       .  S
O692        C699   1.282       .  A
O693       Ni696   1.916       .  S
O693        C698   1.280       .  A
O694       Ni696   1.915       .  S
O694        C697   1.280       .  A
Ni695      Ni696   2.388       .  S
C697       C1116   1.478       .  S
C698       C1146   1.479       .  S
C699       C1106   1.482       .  S
C700       C1156   1.481       .  S
O701       Ni709   1.925   1_554  S
O701        C711   1.283       .  A
O702       Ni709   1.926       .  S
O702        C712   1.283       .  A
O703       Ni709   1.932       .  S
O703        C713   1.284       .  A
O704       Ni709   1.930   1_554  S
O704        C714   1.284       .  A
O705       Ni710   1.917   1_554  S
O705        C714   1.280       .  A
O706       Ni710   1.918       .  S
O706        C713   1.280       .  A
O707       Ni710   1.917       .  S
O707        C712   1.280       .  A
O708       Ni710   1.916   1_554  S
O708        C711   1.280       .  A
Ni709      Ni710   2.389       .  S
C711       C1131   1.476       .  S
C712       C1022   1.476       .  S
C713       C1152   1.480       .  S
C714       C1002   1.479       .  S
O715       Ni723   1.919       .  S
O715        C725   1.281       .  A
O716       Ni723   1.919       .  S
O716        C726   1.281       .  A
O717       Ni723   1.916       .  S
O717        C727   1.280       .  A
O718       Ni723   1.916       .  S
O718        C728   1.280       .  A
O719       Ni724   1.928       .  S
O719        C728   1.283       .  A
O720       Ni724   1.929       .  S
O720        C727   1.283       .  A
O721       Ni724   1.926       .  S
O721        C726   1.283       .  A
O722       Ni724   1.926       .  S
O722        C725   1.283       .  A
Ni723      Ni724   2.389       .  S
C725       C1195   1.478       .  S
C726       C1126   1.478       .  S
C727       C1186   1.477       .  S
C728       C1136   1.476       .  S
O729       Ni737   1.928   1_545  S
O729        C739   1.283       .  A
O730       Ni737   1.929       .  S
O730        C740   1.283       .  A
O731       Ni737   1.927       .  S
O731        C741   1.283       .  A
O732       Ni737   1.929   1_545  S
O732        C742   1.283       .  A
O733       Ni738   1.918   1_545  S
O733        C742   1.281       .  A
O734       Ni738   1.917       .  S
O734        C741   1.280       .  A
O735       Ni738   1.917       .  S
O735        C740   1.280       .  A
O736       Ni738   1.917   1_545  S
O736        C739   1.280       .  A
Ni737      Ni738   2.389       .  S
C739       C1172   1.477       .  S
C740       C1231   1.478       .  S
C741       C1192   1.477       .  S
C742       C1212   1.479       .  S
O743       Ni751   1.928       .  S
O743        C753   1.283       .  A
O744       Ni751   1.929       .  S
O744        C754   1.283       .  A
O745       Ni751   1.933       .  S
O745        C755   1.284       .  A
O746       Ni751   1.930       .  S
O746        C756   1.284       .  A
O747       Ni752   1.915       .  S
O747        C756   1.280       .  A
O748       Ni752   1.917       .  S
O748        C755   1.280       .  A
O749       Ni752   1.917       .  S
O749        C754   1.280       .  A
O750       Ni752   1.917       .  S
O750        C753   1.280       .  A
Ni751      Ni752   2.389       .  S
C753       C1246   1.478       .  S
C754       C1236   1.478       .  S
C755       C1256   1.480       .  S
C756       C1225   1.477       .  S
O757       Ni765   1.923   1_455  S
O757        C767   1.282       .  A
O758       Ni765   1.924       .  S
O758        C768   1.282       .  A
O759       Ni765   1.914       .  S
O759        C769   1.280       .  A
O760       Ni765   1.915   1_455  S
O760        C770   1.280       .  A
O761       Ni766   1.933   1_455  S
O761        C770   1.284       .  A
O762       Ni766   1.933       .  S
O762        C769   1.284       .  A
O763       Ni766   1.926       .  S
O763        C768   1.282       .  A
O764       Ni766   1.926   1_455  S
O764        C767   1.282       .  A
Ni765      Ni766   2.388       .  S
C767       C1252   1.480       .  S
C768        C902   1.481       .  S
C769       C1272   1.479       .  S
C770        C881   1.479       .  S
O771       Ni779   1.919       .  S
O771        C781   1.281       .  A
O772       Ni779   1.918       .  S
O772        C782   1.281       .  A
O773       Ni779   1.920       .  S
O773        C783   1.281       .  A
O774       Ni779   1.920       .  S
O774        C784   1.281       .  A
O775       Ni780   1.930       .  S
O775        C784   1.283       .  A
O776       Ni780   1.930       .  S
O776        C783   1.283       .  A
O777       Ni780   1.930       .  S
O777        C782   1.283       .  A
O778       Ni780   1.930       .  S
O778        C781   1.283       .  A
Ni779      Ni780   2.388       .  S
C781       C1316   1.480       .  S
C782       C1266   1.479       .  S
C783       C1306   1.481       .  S
C784       C1276   1.480       .  S
O785       Ni793   1.929   1_545  S
O785        C795   1.283       .  A
O786       Ni793   1.930       .  S
O786        C796   1.284       .  A
O787       Ni793   1.928       .  S
O787        C797   1.283       .  A
O788       Ni793   1.928   1_545  S
O788        C798   1.283       .  A
O789       Ni794   1.922   1_545  S
O789        C798   1.282       .  A
O790       Ni794   1.922       .  S
O790        C797   1.282       .  A
O791       Ni794   1.916       .  S
O791        C796   1.280       .  A
O792       Ni794   1.916   1_545  S
O792        C795   1.280       .  A
Ni793      Ni794   2.389       .  S
C795       C1292   1.477       .  S
C796       C1182   1.478       .  S
C797       C1312   1.481       .  S
C798       C1162   1.481       .  S
O799       Ni807   1.927   1_455  S
O799        C809   1.283       .  A
O800       Ni807   1.927       .  S
O800        C810   1.283       .  A
O801       Ni807   1.928       .  S
O801        C811   1.283       .  A
O802       Ni807   1.929   1_455  S
O802        C812   1.283       .  A
O803       Ni808   1.916   1_455  S
O803        C812   1.280       .  A
O804       Ni808   1.918       .  S
O804        C811   1.280       .  A
O805       Ni808   1.916       .  S
O805        C810   1.280       .  A
O806       Ni808   1.917   1_455  S
O806        C809   1.280       .  A
Ni807      Ni808   2.389       .  S
C809       C1242   1.477       .  S
C810        C982   1.476       .  S
C811       C1262   1.479       .  S
C812        C962   1.477       .  S
O813       Ni821   1.920   1_545  S
O813        C823   1.281       .  A
O814       Ni821   1.920       .  S
O814        C824   1.281       .  A
O815       Ni821   1.919       .  S
O815        C825   1.281       .  A
O816       Ni821   1.918   1_545  S
O816        C826   1.280       .  A
O817       Ni822   1.928   1_545  S
O817        C826   1.283       .  A
O818       Ni822   1.928       .  S
O818        C825   1.283       .  A
O819       Ni822   1.930       .  S
O819        C824   1.283       .  A
O820       Ni822   1.928   1_545  S
O820        C823   1.283       .  A
Ni821      Ni822   2.389       .  S
C823       C1282   1.480       .  S
C824       C1102   1.481       .  S
C825       C1302   1.480       .  S
C826       C1082   1.477       .  S
O827       Ni835   1.916       .  S
O827        C837   1.280       .  A
O828       Ni835   1.917   1_554  S
O828        C838   1.280       .  A
O829       Ni835   1.918   1_554  S
O829        C839   1.281       .  A
O830       Ni835   1.919       .  S
O830        C840   1.281       .  A
O831       Ni836   1.929       .  S
O831        C840   1.283       .  A
O832       Ni836   1.927   1_554  S
O832        C839   1.283       .  A
O833       Ni836   1.928   1_554  S
O833        C838   1.283       .  A
O834       Ni836   1.928       .  S
O834        C837   1.283       .  A
Ni835      Ni836   2.389       .  S
C837        C942   1.476       .  S
C838       C1122   1.478       .  S
C839        C921   1.477       .  S
C840       C1142   1.479       .  S
C841        C842   1.346       .  D
C841        H843   1.086       .  S
C842        H844   1.086       .  S
C845        C846   1.346       .  D
C845        H847   1.086       .  S
C846        H848   1.086       .  S
C849        C850   1.205       .  T
C851        C852   1.345       .  D
C851        H853   1.086       .  S
C852        H854   1.086       .  S
C855        C856   1.345       .  D
C855        H857   1.086       .  S
C856        H858   1.086       .  S
C859        C860   1.203       .  T
C861        C862   1.344       .  D
C861        H863   1.086       .  S
C862        H864   1.087       .  S
C865        C866   1.344       .  D
C865        H867   1.087       .  S
C866        H868   1.086       .  S
C869        C870   1.204       .  T
C871        C872   1.345       .  D
C871        H873   1.086       .  S
C872        H874   1.087       .  S
C875        C876   1.345       .  D
C875        H877   1.086       .  S
C876        H878   1.087       .  S
C879        C880   1.204       .  T
C881        C882   1.344       .  D
C881        H883   1.087       .  S
C882        H884   1.086       .  S
C885        C886   1.345       .  D
C885        H887   1.087       .  S
C886        H888   1.086       .  S
C889        C890   1.203       .  T
C891        C892   1.345       .  D
C891        H893   1.086       .  S
C892        H894   1.086       .  S
C895        C896   1.346       .  D
C895        H897   1.086       .  S
C896        H898   1.086       .  S
C899        C900   1.203       .  T
C901        C902   1.346       .  D
C901        H903   1.086       .  S
C902        H904   1.087       .  S
C905        C906   1.348       .  D
C905        H907   1.086       .  S
C906        H908   1.086       .  S
C909        C910   1.204       .  T
C911        C912   1.346       .  D
C911        H913   1.086       .  S
C912        H914   1.086       .  S
C915        C916   1.346       .  D
C915        H917   1.086       .  S
C916        H918   1.086       .  S
C919        C920   1.204       .  T
C921        C922   1.346       .  D
C921        H923   1.086       .  S
C922        H924   1.086       .  S
C925        C926   1.341       .  D
C925        H927   1.086       .  S
C926        H928   1.087       .  S
C929        C930   1.204       .  T
C931        C932   1.347       .  D
C931        H933   1.086       .  S
C932        H934   1.087       .  S
C935        C936   1.343       .  D
C935        H937   1.087       .  S
C936        H938   1.087       .  S
C939        C940   1.210       .  T
C941        C942   1.345       .  D
C941        H943   1.086       .  S
C942        H944   1.086       .  S
C945        C946   1.344       .  D
C945        H947   1.087       .  S
C946        H948   1.086       .  S
C949        C950   1.207       .  T
C951        C952   1.343       .  D
C951        H953   1.086       .  S
C952        H954   1.087       .  S
C955        C956   1.345       .  D
C955        H957   1.086       .  S
C956        H958   1.086       .  S
C959        C960   1.206       .  T
C961        C962   1.344       .  D
C961        H963   1.086       .  S
C962        H964   1.087       .  S
C965        C966   1.345       .  D
C965        H967   1.086       .  S
C966        H968   1.087       .  S
C969        C970   1.204       .  T
C971        C972   1.344       .  D
C971        H973   1.087       .  S
C972        H974   1.086       .  S
C975        C976   1.345       .  D
C975        H977   1.086       .  S
C976        H978   1.086       .  S
C979        C980   1.203       .  T
C981        C982   1.344       .  D
C981        H983   1.086       .  S
C982        H984   1.087       .  S
C985        C986   1.343       .  D
C985        H987   1.086       .  S
C986        H988   1.087       .  S
C989        C990   1.204       .  T
C991        C992   1.345       .  D
C991        H993   1.086       .  S
C992        H994   1.086       .  S
C995        C996   1.345       .  D
C995        H997   1.086       .  S
C996        H998   1.086       .  S
C999       C1000   1.204       .  T
C1001      C1002   1.344       .  D
C1001      H1003   1.086       .  S
C1002      H1004   1.087       .  S
C1005      C1006   1.346       .  D
C1005      H1007   1.086       .  S
C1006      H1008   1.086       .  S
C1009      C1010   1.204       .  T
C1011      C1012   1.345       .  D
C1011      H1013   1.087       .  S
C1012      H1014   1.086       .  S
C1015      C1016   1.344       .  D
C1015      H1017   1.086       .  S
C1016      H1018   1.086       .  S
C1019      C1020   1.204       .  T
C1021      C1022   1.344       .  D
C1021      H1023   1.086       .  S
C1022      H1024   1.087       .  S
C1025      C1026   1.345       .  D
C1025      H1027   1.086       .  S
C1026      H1028   1.087       .  S
C1029      C1030   1.205       .  T
C1031      C1032   1.345       .  D
C1031      H1033   1.086       .  S
C1032      H1034   1.087       .  S
C1035      C1036   1.345       .  D
C1035      H1037   1.086       .  S
C1036      H1038   1.086       .  S
C1039      C1040   1.204       .  T
C1041      C1042   1.344       .  D
C1041      H1043   1.086       .  S
C1042      H1044   1.087       .  S
C1045      C1046   1.345       .  D
C1045      H1047   1.086       .  S
C1046      H1048   1.086       .  S
C1049      C1050   1.204       .  T
C1051      C1052   1.345       .  D
C1051      H1053   1.086       .  S
C1052      H1054   1.086       .  S
C1055      C1056   1.346       .  D
C1055      H1057   1.086       .  S
C1056      H1058   1.086       .  S
C1059      C1060   1.204       .  T
C1061      C1062   1.345       .  D
C1061      H1063   1.086       .  S
C1062      H1064   1.087       .  S
C1065      C1066   1.345       .  D
C1065      H1067   1.086       .  S
C1066      H1068   1.087       .  S
C1069      C1070   1.203       .  T
C1071      C1072   1.345       .  D
C1071      H1073   1.086       .  S
C1072      H1074   1.086       .  S
C1075      C1076   1.345       .  D
C1075      H1077   1.086       .  S
C1076      H1078   1.086       .  S
C1079      C1080   1.204       .  T
C1081      C1082   1.344       .  D
C1081      H1083   1.086       .  S
C1082      H1084   1.087       .  S
C1085      C1086   1.344       .  D
C1085      H1087   1.086       .  S
C1086      H1088   1.086       .  S
C1089      C1090   1.204       .  T
C1091      C1092   1.343       .  D
C1091      H1093   1.086       .  S
C1092      H1094   1.087       .  S
C1095      C1096   1.344       .  D
C1095      H1097   1.086       .  S
C1096      H1098   1.087       .  S
C1099      C1100   1.205       .  T
C1101      C1102   1.346       .  D
C1101      H1103   1.086       .  S
C1102      H1104   1.087       .  S
C1105      C1106   1.348       .  D
C1105      H1107   1.086       .  S
C1106      H1108   1.086       .  S
C1109      C1110   1.204       .  T
C1111      C1112   1.344       .  D
C1111      H1113   1.086       .  S
C1112      H1114   1.087       .  S
C1115      C1116   1.344       .  D
C1115      H1117   1.086       .  S
C1116      H1118   1.087       .  S
C1119      C1120   1.204       .  T
C1121      C1122   1.345       .  D
C1121      H1123   1.086       .  S
C1122      H1124   1.087       .  S
C1125      C1126   1.345       .  D
C1125      H1127   1.086       .  S
C1126      H1128   1.087       .  S
C1129      C1130   1.204       .  T
C1131      C1132   1.344       .  D
C1131      H1133   1.087       .  S
C1132      H1134   1.086       .  S
C1135      C1136   1.344       .  D
C1135      H1137   1.086       .  S
C1136      H1138   1.087       .  S
C1139      C1140   1.205       .  T
C1141      C1142   1.346       .  D
C1141      H1143   1.086       .  S
C1142      H1144   1.086       .  S
C1145      C1146   1.345       .  D
C1145      H1147   1.086       .  S
C1146      H1148   1.086       .  S
C1149      C1150   1.205       .  T
C1151      C1152   1.346       .  D
C1151      H1153   1.086       .  S
C1152      H1154   1.086       .  S
C1155      C1156   1.347       .  D
C1155      H1157   1.086       .  S
C1156      H1158   1.087       .  S
C1159      C1160   1.204       .  T
C1161      C1162   1.347       .  D
C1161      H1163   1.086       .  S
C1162      H1164   1.086       .  S
C1165      C1166   1.346       .  D
C1165      H1167   1.086       .  S
C1166      H1168   1.086       .  S
C1169      C1170   1.204       .  T
C1171      C1172   1.345       .  D
C1171      H1173   1.086       .  S
C1172      H1174   1.086       .  S
C1175      C1176   1.345       .  D
C1175      H1177   1.086       .  S
C1176      H1178   1.087       .  S
C1179      C1180   1.204       .  T
C1181      C1182   1.344       .  D
C1181      H1183   1.086       .  S
C1182      H1184   1.087       .  S
C1185      C1186   1.344       .  D
C1185      H1187   1.086       .  S
C1186      H1188   1.087       .  S
C1189      C1190   1.203       .  T
C1191      C1192   1.344       .  D
C1191      H1193   1.086       .  S
C1192      H1194   1.087       .  S
C1195      C1196   1.345       .  D
C1195      H1197   1.086       .  S
C1196      H1198   1.086       .  S
C1199      C1200   1.204       .  T
C1201      C1202   1.345       .  D
C1201      H1203   1.086       .  S
C1202      H1204   1.087       .  S
C1205      C1206   1.346       .  D
C1205      H1207   1.086       .  S
C1206      H1208   1.087       .  S
C1209      C1210   1.204       .  T
C1211      C1212   1.345       .  D
C1211      H1213   1.086       .  S
C1212      H1214   1.087       .  S
C1215      C1216   1.346       .  D
C1215      H1217   1.086       .  S
C1216      H1218   1.086       .  S
C1219      C1220   1.204       .  T
C1221      C1222   1.343       .  D
C1221      H1223   1.086       .  S
C1222      H1224   1.087       .  S
C1225      C1226   1.344       .  D
C1225      H1227   1.087       .  S
C1226      H1228   1.086       .  S
C1229      C1230   1.204       .  T
C1231      C1232   1.345       .  D
C1231      H1233   1.086       .  S
C1232      H1234   1.086       .  S
C1235      C1236   1.345       .  D
C1235      H1237   1.086       .  S
C1236      H1238   1.087       .  S
C1239      C1240   1.204       .  T
C1241      C1242   1.344       .  D
C1241      H1243   1.086       .  S
C1242      H1244   1.086       .  S
C1245      C1246   1.344       .  D
C1245      H1247   1.086       .  S
C1246      H1248   1.087       .  S
C1249      C1250   1.204       .  T
C1251      C1252   1.347       .  D
C1251      H1253   1.086       .  S
C1252      H1254   1.086       .  S
C1255      C1256   1.345       .  D
C1255      H1257   1.086       .  S
C1256      H1258   1.086       .  S
C1259      C1260   1.204       .  T
C1261      C1262   1.345       .  D
C1261      H1263   1.086       .  S
C1262      H1264   1.086       .  S
C1265      C1266   1.345       .  D
C1265      H1267   1.086       .  S
C1266      H1268   1.086       .  S
C1269      C1270   1.204       .  T
C1271      C1272   1.344       .  D
C1271      H1273   1.086       .  S
C1272      H1274   1.087       .  S
C1275      C1276   1.346       .  D
C1275      H1277   1.086       .  S
C1276      H1278   1.086       .  S
C1279      C1280   1.204       .  T
C1281      C1282   1.345       .  D
C1281      H1283   1.086       .  S
C1282      H1284   1.086       .  S
C1285      C1286   1.345       .  D
C1285      H1287   1.086       .  S
C1286      H1288   1.086       .  S
C1289      C1290   1.204       .  T
C1291      C1292   1.345       .  D
C1291      H1293   1.086       .  S
C1292      H1294   1.086       .  S
C1295      C1296   1.344       .  D
C1295      H1297   1.086       .  S
C1296      H1298   1.087       .  S
C1299      C1300   1.205       .  T
C1301      C1302   1.345       .  D
C1301      H1303   1.086       .  S
C1302      H1304   1.086       .  S
C1305      C1306   1.346       .  D
C1305      H1307   1.086       .  S
C1306      H1308   1.086       .  S
C1309      C1310   1.204       .  T
C1311      C1312   1.347       .  D
C1311      H1313   1.086       .  S
C1312      H1314   1.086       .  S
C1315      C1316   1.346       .  D
C1315      H1317   1.086       .  S
C1316      H1318   1.087       .  S
C1319      C1320   1.205       .  T
