geometry optimzed in LAMMPS
_audit_creation_date              2020-11-30 
_audit_creation_method            'lammps2cif' 
_symmetry_space_group_name_H-M    'P1' 
_symmetry_Int_Tables_number       1 
_symmetry_cell_setting            triclinic 
loop_ 
_symmetry_equiv_pos_as_xyz 
  x,y,z 
_cell_length_a                    36.34493122 
_cell_length_b                    38.633346366887466 
_cell_length_c                    31.842220191634798 
_cell_angle_alpha                 79.05582319555671 
_cell_angle_beta                  79.37172542310311 
_cell_angle_gamma                 91.72977387086789 
loop_ 
_atom_site_label 
_atom_site_type_symbol 
_atom_site_fract_x 
_atom_site_fract_y 
_atom_site_fract_z 
_atom_site_charge 
N1          N  0.34847945  0.36467307  0.99568544    -0.01700
C2          C  0.33299513  0.36652782  0.45349848     0.00900
C3          C  0.34493794  0.39704898  0.42286141    -0.22000
C4          C  0.36781384  0.41633453  0.44035856    -0.22200
C5          C  0.36971792  0.39597637  0.98768075     0.00800
H6          H  0.33981160  0.40347850  0.38993725     0.14600
H7          H  0.38407307  0.44060685  0.42365892     0.14600
N8          N  0.06461996  0.31183294  0.02738837    -0.01700
C9          C  0.05729193  0.28635516  0.06431015     0.00900
C10         C  0.01986234  0.28306205  0.08335651    -0.22000
C11         C  0.00318426  0.30843805  0.05904254    -0.22200
C12         C  0.03101992  0.32706873  0.02604221     0.00800
H13         H  0.00716010  0.26731423  0.11489742     0.14600
H14         H  0.97496172  0.31614405  0.06874579     0.14600
N15         N  0.39705676  0.07499721  0.01301779    -0.01700
C16         C  0.39707013  0.09750431  0.04099363     0.00900
C17         C  0.43166412  0.10326816  0.05034267    -0.22000
C18         C  0.45435775  0.08223336  0.02962089    -0.22200
C19         C  0.43302011  0.06368358  0.00779435     0.00800
H20         H  0.43834415  0.11736412  0.07460076     0.14600
H21         H  0.48186630  0.07713401  0.03665777     0.14600
N22         N  0.46659586  0.39818621  0.50878279    -0.34800
N23         N  0.42924503  0.46433947  0.50477872    -0.55400
N24         N  0.49779100  0.99471544  0.02301916    -0.34800
N25         N  0.03912926  0.42697624  0.01677409    -0.55400
C26         C  0.43511376  0.39127068  0.49363470     0.28700
C27         C  0.99460148  0.37775359  0.49349992     0.28700
C28         C  0.48432510  0.02190327  0.99781173     0.28700
C29         C  0.03133131  0.00091267  0.01898266     0.28700
C30         C  0.39907022  0.44119313  0.51318593     0.37400
C31         C  0.41673578  0.49628751  0.50983901     0.37400
C32         C  0.04592684  0.39219800  0.02416373     0.37400
C33         C  0.05992844  0.44289921  0.03985077     0.37400
C34         C  0.44152436  0.36489975  0.46950632    -0.20100
C35         C  0.47737924  0.35495359  0.47115344    -0.20100
C36         C  0.51373464  0.04671396  0.97741837    -0.20100
C37         C  0.04057861  0.03361594  0.99177888    -0.20100
C38         C  0.36676844  0.45860063  0.52340176    -0.21200
C39         C  0.37798688  0.49340984  0.52191225    -0.21200
C40         C  0.07283204  0.38653856  0.05004154    -0.21200
C41         C  0.08141730  0.41854813  0.06027970    -0.21200
C42         C  0.40037313  0.40727537  0.50236286    -0.16500
C43         C  0.02547097  0.36562936  0.01074303    -0.16500
C44         C  0.05928522  0.47913712  0.04257267    -0.16500
C45         C  0.44200517  0.02555344  0.50602104    -0.16500
H46         H  0.42193106  0.35302809  0.45369477     0.16400
H47         H  0.98964425  0.33644594  0.45501579     0.16400
H48         H  0.51195715  0.07179646  0.95617058     0.16400
H49         H  0.06775644  0.04771865  0.98143613     0.16400
H50         H  0.33808964  0.44754122  0.52988459     0.14700
H51         H  0.35992840  0.01447733  0.53420398     0.14700
H52         H  0.08437462  0.36196404  0.06167881     0.14700
H53         H  0.10109091  0.42329807  0.08059558     0.14700
H54         H  0.46854756  0.41418140  0.53133499     0.27900
H55         H  0.48020600  0.47408931  0.05121641     0.27900
N56         N  0.09111418  0.02171903  0.07775131    -0.01700
C57         C  0.09377101  0.02226934  0.11992491     0.00900
C58         C  0.07447059  0.99237256  0.14689334    -0.22000
C59         C  0.05918658  0.47376950  0.12328426    -0.22200
C60         C  0.06993874  0.99163960  0.07830967     0.00800
H61         H  0.07134294  0.98516833  0.18196822     0.14600
H62         H  0.04017814  0.45035692  0.13441711     0.14600
O63         O  0.28458704  0.26974598  0.33337667    -0.73500
O64         O  0.26064925  0.23022737  0.39638228    -0.52400
C65         C  0.27784719  0.25958359  0.37519321     0.80200
O66         O  0.14455332  0.24203170  0.22204829    -0.58100
O67         O  0.18265670  0.21949186  0.17020391    -0.51200
C68         C  0.15437441  0.23636426  0.18298219     0.72200
O69         O  0.14705729  0.25004547  0.36107507    -0.72700
O70         O  0.18190743  0.22521140  0.41020167    -0.53200
C71         C  0.15620278  0.24574062  0.39876992     0.78200
O72         O  0.29526085  0.27065716  0.18952056    -0.57800
O73         O  0.26280412  0.23865302  0.15318738    -0.50900
C74         C  0.28601053  0.26429611  0.15447733     0.74800
Zr75       Zr  0.27630390  0.24830100  0.26797689     2.54700
O76         O  0.26921020  0.31166476  0.25301840    -0.78400
O77         O  0.34415889  0.25746791  0.25894367    -0.91800
Zr78       Zr  0.16548104  0.23115569  0.29209401     2.64700
O79         O  0.16222282  0.29493300  0.27320041    -0.96800
O80         O  0.09745313  0.22151219  0.31113961    -0.78800
O81         O  0.22014643  0.23913018  0.32096534    -0.82200
O82         O  0.22136037  0.24181177  0.23897175    -2.16900
O83         O  0.30607684  0.13167458  0.21382213    -0.65600
O84         O  0.27109680  0.15996960  0.16691433    -0.50100
C85         C  0.29704749  0.14001766  0.17604344     0.73200
O86         O  0.16442100  0.10349090  0.38945323    -0.58500
O87         O  0.18709353  0.14164820  0.42691027    -0.50500
C88         C  0.16909579  0.11310556  0.42475927     0.75000
O89         O  0.15875746  0.11046579  0.24699378    -0.69900
O90         O  0.19096876  0.14526606  0.18416179    -0.48600
C91         C  0.16736603  0.11924531  0.20497024     0.76400
O92         O  0.31020234  0.13067154  0.35412375    -0.65200
O93         O  0.27205049  0.15165218  0.40777073    -0.52400
C94         C  0.30056039  0.13445904  0.39386308     0.74800
Zr95       Zr  0.28649260  0.14483585  0.28653633     2.77500
O96         O  0.28456436  0.08053677  0.30330561    -0.96000
O97         O  0.35473866  0.14999883  0.26842211    -0.76800
Zr98       Zr  0.17609428  0.12803813  0.31150713     2.70100
O99         O  0.18287665  0.06483004  0.31793701    -0.78000
O100        O  0.10803915  0.11853626  0.33172053    -0.97100
Zr101      Zr  0.22533657  0.18675149  0.37231305     2.21500
Zr102      Zr  0.22697429  0.19011421  0.20849627     2.11100
O103        O  0.23187259  0.13657128  0.25806278    -2.45800
O104        O  0.23085843  0.13535771  0.34065224    -0.77800
O105        O  0.28314590  0.19770748  0.23558345    -0.70000
O106        O  0.16955441  0.17885210  0.34384464    -2.31000
O107        O  0.28199966  0.19595476  0.31833842    -2.27200
O108        O  0.17002129  0.18015146  0.26105697    -0.71800
H109        H  0.21929835  0.26242969  0.21721253     0.80200
H110        H  0.14765472  0.17543779  0.36696903     0.81300
H111        H  0.23395025  0.11668056  0.24361192     0.83500
H112        H  0.30355023  0.19914674  0.33133225     0.81100
H113        H  0.09223639  0.19731058  0.30670241     0.44200
H114        H  0.10062820  0.13215232  0.35496399     0.41000
H115        H  0.16017011  0.05353839  0.33886895     0.42800
H116        H  0.30934126  0.07501508  0.31060904     0.40800
H117        H  0.36111641  0.17379557  0.24985340     0.43900
H118        H  0.35256915  0.27183729  0.22923927     0.38700
H119        H  0.25000120  0.31567487  0.27771862     0.44800
H120        H  0.13562485  0.29895037  0.28374773     0.41200
H121        H  0.26662682  0.07359847  0.33140499     0.46100
H122        H  0.35368020  0.23398697  0.25707457     0.44900
H123        H  0.17604249  0.30446984  0.29302036     0.45000
H124        H  0.09872887  0.13163665  0.30633361     0.45300
C125        C  0.11100004  0.08372150  0.19609577     0.25400
C126        C  0.14829514  0.09748758  0.17964660    -0.22700
C127        C  0.16716128  0.08839621  0.14070542     0.20300
C128        C  0.14974558  0.06470073  0.12025218     0.25300
C129        C  0.11243727  0.05063035  0.13725938    -0.22700
C130        C  0.09328790  0.06124432  0.17497778     0.20200
F131        F  0.05705421  0.04941680  0.19204217    -0.12600
F132        F  0.09137753  0.09197846  0.23308279    -0.15000
F133        F  0.17031822  0.05394890  0.08557391    -0.15000
F134        F  0.20327587  0.10071899  0.12382637    -0.12600
C135        C  0.10907727  0.08196826  0.53585351     0.25400
C136        C  0.11085287  0.04579023  0.03982020    -0.22700
C137        C  0.13621937  0.03299094  0.00843228     0.20300
C138        C  0.15552357  0.05338640  0.47244118     0.25300
C139        C  0.15145370  0.08995004  0.46592620    -0.22700
C140        C  0.12869424  0.10418248  0.49815906     0.20200
F141        F  0.12390078  0.13938830  0.49200972    -0.12600
F142        F  0.08501282  0.09590536  0.56509653    -0.15000
F143        F  0.17781394  0.03920764  0.44182388    -0.15000
F144        F  0.14231606  0.99807625  0.01404209    -0.12600
C145        C  0.35443764  0.08151678  0.11209421     0.25400
C146        C  0.36423603  0.10432117  0.07117332    -0.22700
C147        C  0.34904098  0.13710927  0.06369336     0.20300
C148        C  0.32609097  0.14828758  0.09780798     0.25300
C149        C  0.31825043  0.12655560  0.13971949    -0.22700
C150        C  0.33133634  0.09255455  0.14631310     0.20200
F151        F  0.32260966  0.07054128  0.18596577    -0.12600
F152        F  0.36964396  0.04976022  0.11961764    -0.15000
F153        F  0.31389524  0.18139324  0.09061331    -0.15000
F154        F  0.35869953  0.15922876  0.02424980    -0.12600
C155        C  0.36411353  0.11847940  0.41113591     0.25400
C156        C  0.32469860  0.11732751  0.42470304    -0.22700
C157        C  0.30898914  0.09757872  0.46637667     0.20300
C158        C  0.33194869  0.08008564  0.49387194     0.25300
C159        C  0.37159825  0.08222694  0.48104751    -0.22700
C160        C  0.38713268  0.10177025  0.43902228     0.20200
F161        F  0.42493523  0.10720966  0.42619523    -0.12600
F162        F  0.38072715  0.13745235  0.37136567    -0.15000
F163        F  0.31536187  0.06256249  0.53433812    -0.15000
F164        F  0.27123203  0.09499088  0.48053921    -0.12600
C165        C  0.10989516  0.27910164  0.15604571     0.25400
C166        C  0.13156057  0.25022947  0.15046680    -0.22700
C167        C  0.13068704  0.23460278  0.11389076     0.20300
C168        C  0.10741794  0.24692420  0.08460870     0.25300
C169        C  0.08538277  0.27529606  0.09106524    -0.22700
C170        C  0.08713706  0.29147746  0.12662911     0.20200
F171        F  0.06557223  0.31864238  0.13384832    -0.12600
F172        F  0.11043218  0.29537161  0.19019005    -0.15000
F173        F  0.10541393  0.23039522  0.05100196    -0.15000
F174        F  0.15096623  0.20645048  0.10743977    -0.12600
C175        C  0.13032548  0.30148860  0.48747895     0.25400
C176        C  0.09188406  0.30634784  0.48731414    -0.22700
C177        C  0.07613168  0.29275268  0.45598453     0.20300
C178        C  0.09717117  0.27377228  0.42753477     0.25300
C179        C  0.13469249  0.26641641  0.42996627    -0.22700
C180        C  0.15116142  0.28109093  0.46001373     0.20200
F181        F  0.18736855  0.27560098  0.46303376    -0.12600
F182        F  0.14456527  0.31520851  0.01781561    -0.15000
F183        F  0.07973404  0.26082844  0.39897287    -0.15000
F184        F  0.03920832  0.29523777  0.45497851    -0.12600
C185        C  0.35718886  0.31996140  0.06107239     0.25400
C186        C  0.33393097  0.34107379  0.03739242    -0.22700
C187        C  0.29475948  0.33637689  0.05309791     0.20300
C188        C  0.27926228  0.31069301  0.09016982     0.25300
C189        C  0.30248088  0.28940928  0.11324698    -0.22700
C190        C  0.34159969  0.29467345  0.09876298     0.20200
F191        F  0.36474188  0.27457001  0.12058522    -0.12600
F192        F  0.39479034  0.32247012  0.04716428    -0.15000
F193        F  0.24148014  0.30732713  0.10432284    -0.15000
F194        F  0.27132239  0.35696403  0.03238290    -0.12600
C195        C  0.32635028  0.30239435  0.44941813     0.25400
C196        C  0.31317851  0.33652885  0.44223320    -0.22700
C197        C  0.28583620  0.34360193  0.41618613     0.20300
C198        C  0.27417169  0.31809209  0.39503918     0.25300
C199        C  0.28871328  0.28474994  0.40047979    -0.22700
C200        C  0.31369920  0.27643765  0.42909112     0.20200
F201        F  0.32775548  0.24408008  0.43492706    -0.12600
F202        F  0.35374426  0.29500946  0.47285969    -0.15000
F203        F  0.24905089  0.32610349  0.36848778    -0.15000
F204        F  0.27168782  0.37589610  0.40947932    -0.12600
N205        N  0.34739998  0.36621921  0.49024980    -0.01700
C206        C  0.33323850  0.36587632  0.95939163     0.00900
C207        C  0.34412865  0.39719486  0.92987946    -0.22000
C208        C  0.36696909  0.41615457  0.94776514    -0.22200
C209        C  0.36955026  0.39714336  0.48116676     0.00800
H210        H  0.33819658  0.40451900  0.89739743     0.14600
H211        H  0.38253864  0.44094987  0.93179289     0.14600
N212        N  0.06739991  0.31583498  0.52477990    -0.01700
C213        C  0.05904686  0.29026907  0.56169286     0.00900
C214        C  0.02133592  0.28718514  0.57948727    -0.22000
C215        C  0.00557185  0.31312707  0.55501078    -0.22200
C216        C  0.03416602  0.33171417  0.52298765     0.00800
H217        H  0.00784260  0.27133480  0.61065532     0.14600
H218        H  0.97736493  0.32110257  0.56405334     0.14600
N219        N  0.39509225  0.07471094  0.51399527    -0.01700
C220        C  0.39594626  0.09890449  0.53962874     0.00900
C221        C  0.43089387  0.10512782  0.54778256    -0.22000
C222        C  0.45291892  0.08271127  0.52865085    -0.22200
C223        C  0.43075392  0.06277546  0.50920873     0.00800
H224        H  0.43825752  0.12058107  0.57042180     0.14600
H225        H  0.48053664  0.07784297  0.53547170     0.14600
N226        N  0.46741727  0.39640082  0.01254711    -0.34800
N227        N  0.43025358  0.46269234  0.00993602    -0.55400
N228        N  0.49410425  0.99299630  0.52973691    -0.34800
N229        N  0.04162101  0.43155746  0.51383200    -0.55400
C230        C  0.43541668  0.38958006  0.99848428     0.28700
C231        C  0.99095627  0.37302837  0.99690531     0.28700
C232        C  0.48084104  0.01934949  0.50305326     0.28700
C233        C  0.03212105  0.00227973  0.52034256     0.28700
C234        C  0.40010811  0.43939788  0.01954783     0.37400
C235        C  0.41771095  0.49480390  0.01414578     0.37400
C236        C  0.04916451  0.39700029  0.52097655     0.37400
C237        C  0.06128119  0.44767072  0.53778449     0.37400
C238        C  0.44109967  0.36349367  0.97381200    -0.20100
C239        C  0.47706956  0.35352727  0.97410031    -0.20100
C240        C  0.51061795  0.04285445  0.48005360    -0.20100
C241        C  0.04174349  0.03470866  0.49261730    -0.20100
C242        C  0.36788260  0.45680276  0.03007043    -0.21200
C243        C  0.37903378  0.49180925  0.02705560    -0.21200
C244        C  0.07568576  0.39168782  0.54741740    -0.21200
C245        C  0.08303832  0.42375649  0.55844718    -0.21200
C246        C  0.40096404  0.40561645  0.00838572    -0.16500
C247        C  0.02908891  0.37035168  0.50733632    -0.16500
C248        C  0.05888781  0.48359852  0.54124221    -0.16500
C249        C  0.44532752  0.02752801  0.00105382    -0.16500
H250        H  0.42099819  0.35182614  0.95847316     0.16400
H251        H  0.98443759  0.33019371  0.96103554     0.16400
H252        H  0.50910633  0.06690260  0.45678938     0.16400
H253        H  0.06892266  0.04887886  0.48293321     0.16400
H254        H  0.33920331  0.44565010  0.03728858     0.14700
H255        H  0.36362080  0.01478712  0.03139149     0.14700
H256        H  0.08737537  0.36719510  0.55922883     0.14700
H257        H  0.10184167  0.42880593  0.57961733     0.14700
H258        H  0.47004353  0.41224701  0.03509321     0.27900
H259        H  0.47904889  0.47405979  0.54671858     0.27900
N260        N  0.09198810  0.02245302  0.58047534    -0.01700
C261        C  0.09183493  0.02513322  0.62273605     0.00900
C262        C  0.06859650  0.99777053  0.65016518    -0.22000
C263        C  0.05367811  0.47983188  0.62254542    -0.22200
C264        C  0.06871963  0.99370866  0.58130928     0.00800
H265        H  0.06240574  0.99272055  0.68543461     0.14600
H266        H  0.03444395  0.45655145  0.63309597     0.14600
O267        O  0.28228235  0.27396930  0.83445000    -0.73500
O268        O  0.26306592  0.23180571  0.89632380    -0.52400
C269        C  0.27769381  0.26241656  0.87603898     0.80200
O270        O  0.14306558  0.24555666  0.72423418    -0.58100
O271        O  0.18150303  0.22391064  0.67183309    -0.51200
C272        C  0.15290203  0.24030072  0.68495608     0.72200
O273        O  0.14859077  0.25140183  0.86285870    -0.72700
O274        O  0.18305414  0.22538120  0.91187503    -0.53200
C275        C  0.15728339  0.24591924  0.90078947     0.78200
O276        O  0.29293749  0.27624314  0.68885755    -0.57800
O277        O  0.26138409  0.24359814  0.65233792    -0.50900
C278        C  0.28386608  0.26982880  0.65357120     0.74800
Zr279      Zr  0.27676060  0.25203452  0.76802323     2.54700
O280        O  0.27889564  0.31635173  0.75278943    -0.78400
O281        O  0.34482369  0.25357534  0.75949043    -0.91800
Zr282      Zr  0.16557811  0.23311568  0.79354207     2.64700
O283        O  0.15520500  0.29588508  0.77884431    -0.96800
O284        O  0.09883675  0.21535433  0.81612275    -0.78800
O285        O  0.22079040  0.24129265  0.82163562    -0.82200
O286        O  0.22121137  0.24531893  0.73990181    -2.16900
O287        O  0.30599666  0.13621632  0.71111553    -0.65600
O288        O  0.27187730  0.16595640  0.66422704    -0.50100
C289        C  0.29728866  0.14523404  0.67320918     0.73200
O290        O  0.16392406  0.10710903  0.88927332    -0.58500
O291        O  0.18808125  0.14381299  0.92744231    -0.50500
C292        C  0.16884787  0.11605872  0.92488129     0.75000
O293        O  0.15946804  0.11326369  0.74719622    -0.69900
O294        O  0.19108939  0.14869274  0.68437882    -0.48600
C295        C  0.16772932  0.12242960  0.70522496     0.76400
O296        O  0.31107558  0.13191045  0.85272473    -0.65200
O297        O  0.27318578  0.15183736  0.90743500    -0.52400
C298        C  0.30144311  0.13453865  0.89299575     0.74800
Zr299      Zr  0.28848779  0.14926868  0.78435569     2.77500
O300        O  0.29399203  0.08564144  0.79934899    -0.96000
O301        O  0.35604141  0.16219926  0.76219710    -0.76800
Zr302      Zr  0.17773622  0.13088067  0.81104288     2.70100
O303        O  0.18367957  0.06745730  0.81884968    -0.78000
O304        O  0.10946254  0.12408530  0.82947309    -0.97100
Zr305      Zr  0.22718748  0.18859375  0.87245611     2.21500
Zr306      Zr  0.22713343  0.19427911  0.70790278     2.11100
O307        O  0.23324497  0.14060203  0.75688016    -2.45800
O308        O  0.23313264  0.13812444  0.83908791    -0.77800
O309        O  0.28350447  0.20222704  0.73436021    -0.70000
O310        O  0.17126867  0.18088410  0.84450800    -2.31000
O311        O  0.28352380  0.19945488  0.81785478    -2.27200
O312        O  0.17075910  0.18299096  0.76108185    -0.71800
H313        H  0.21862064  0.26608931  0.71864519     0.80200
H314        H  0.14966004  0.17704547  0.86798976     0.81300
H315        H  0.23535044  0.12089352  0.74211825     0.83500
H316        H  0.30512903  0.20249957  0.83081330     0.81100
H317        H  0.09478871  0.20652873  0.84801908     0.44200
H318        H  0.10241651  0.13601432  0.85441463     0.41000
H319        H  0.19773463  0.06116905  0.84275878     0.42800
H320        H  0.26967888  0.07544493  0.79587122     0.40800
H321        H  0.35917592  0.18120909  0.73587671     0.43900
H322        H  0.35004082  0.25917936  0.78699024     0.38700
H323        H  0.30573981  0.32394460  0.74147318     0.44800
H324        H  0.16874326  0.30489857  0.74856188     0.41200
H325        H  0.31237137  0.08099297  0.77430485     0.46100
H326        H  0.35398933  0.27515212  0.73722674     0.44900
H327        H  0.12831127  0.29676954  0.77713162     0.45000
H328        H  0.10113508  0.13953680  0.80491408     0.45300
C329        C  0.10980196  0.09094440  0.69376470     0.25400
C330        C  0.14838544  0.10085075  0.68003273    -0.22700
C331        C  0.16814997  0.08777210  0.64448205     0.20300
C332        C  0.15013501  0.06383796  0.62486207     0.25300
C333        C  0.11150973  0.05345331  0.63926373    -0.22700
C334        C  0.09160206  0.06822482  0.67328303     0.20200
F335        F  0.05412135  0.06046250  0.68711083    -0.12600
F336        F  0.08947177  0.10330468  0.72740103    -0.15000
F337        F  0.17106253  0.04933521  0.59363146    -0.15000
F338        F  0.20545971  0.09645338  0.63044850    -0.12600
C339        C  0.10584611  0.08219294  0.03428649     0.25400
C340        C  0.11287710  0.04538898  0.54231835    -0.22700
C341        C  0.13676341  0.03128248  0.51080027     0.20300
C342        C  0.15569206  0.05611212  0.97139174     0.25300
C343        C  0.15054559  0.09245388  0.96560312    -0.22700
C344        C  0.12586732  0.10548783  0.99749005     0.20200
F345        F  0.11993829  0.14046098  0.99197886    -0.12600
F346        F  0.08070880  0.09486049  0.06378949    -0.15000
F347        F  0.17991546  0.04311142  0.94129603    -0.15000
F348        F  0.14175312  0.99612689  0.51728749    -0.12600
C349        C  0.35339551  0.08493993  0.61066512     0.25400
C350        C  0.36339781  0.10695521  0.56934638    -0.22700
C351        C  0.34845349  0.13982657  0.56082565     0.20300
C352        C  0.32527915  0.15171057  0.59434677     0.25300
C353        C  0.31798185  0.13105590  0.63696946    -0.22700
C354        C  0.33117807  0.09710077  0.64455578     0.20200
F355        F  0.32342121  0.07610773  0.68490008    -0.12600
F356        F  0.36760441  0.05275659  0.61884518    -0.15000
F357        F  0.31224749  0.18437862  0.58574085    -0.15000
F358        F  0.35829024  0.16120326  0.52087347    -0.12600
C359        C  0.36445467  0.11435556  0.90908835     0.25400
C360        C  0.32545097  0.11625886  0.92376818    -0.22700
C361        C  0.31012177  0.09912453  0.96694497     0.20300
C362        C  0.33306291  0.08145643  0.99449245     0.25300
C363        C  0.37258679  0.08188060  0.98081356    -0.22700
C364        C  0.38760379  0.09817437  0.93724650     0.20200
F365        F  0.42526507  0.10071913  0.92257510    -0.12600
F366        F  0.38084464  0.12998984  0.86771186    -0.15000
F367        F  0.31655855  0.06483354  0.03541627    -0.15000
F368        F  0.27277312  0.09924627  0.98264324    -0.12600
C369        C  0.10740760  0.28225039  0.65742870     0.25400
C370        C  0.12996013  0.25385698  0.65223344    -0.22700
C371        C  0.13054271  0.23857105  0.61509624     0.20300
C372        C  0.10823771  0.25083108  0.58472221     0.25300
C373        C  0.08598057  0.27919769  0.59015118    -0.22700
C374        C  0.08596442  0.29494936  0.62648582     0.20200
F375        F  0.06410682  0.32213735  0.63269824    -0.12600
F376        F  0.10605512  0.29791156  0.69236485    -0.15000
F377        F  0.10751737  0.23427653  0.55086724    -0.15000
F378        F  0.15158740  0.21085711  0.60886299    -0.12600
C379        C  0.12844769  0.30054027  0.98957597     0.25400
C380        C  0.08961157  0.30319803  0.98989555    -0.22700
C381        C  0.07435609  0.28787818  0.95955995     0.20300
C382        C  0.09639599  0.26933651  0.93149390     0.25300
C383        C  0.13463732  0.26489218  0.93279049    -0.22700
C384        C  0.15052467  0.28110573  0.96196200     0.20200
F385        F  0.18732719  0.27811515  0.96385767    -0.12600
F386        F  0.14717272  0.31486871  0.51613427    -0.15000
F387        F  0.07948577  0.25402164  0.90432313    -0.15000
F388        F  0.03712652  0.28833937  0.95927206    -0.12600
C389        C  0.35527009  0.32417871  0.55831746     0.25400
C390        C  0.33221960  0.34345302  0.53255407    -0.22700
C391        C  0.29290682  0.33808871  0.54738819     0.20300
C392        C  0.27724975  0.31381308  0.58597226     0.25300
C393        C  0.30037773  0.29476757  0.61166206    -0.22700
C394        C  0.33954737  0.30058375  0.59758431     0.20200
F395        F  0.36273043  0.28235934  0.62123825    -0.12600
F396        F  0.39292190  0.32663538  0.54480874    -0.15000
F397        F  0.23935189  0.30959613  0.59879388    -0.15000
F398        F  0.26944930  0.35668296  0.52445368    -0.12600
C399        C  0.32628342  0.30228178  0.95286099     0.25400
C400        C  0.31300046  0.33639653  0.94754084    -0.22700
C401        C  0.28521313  0.34428445  0.92230990     0.20300
C402        C  0.27373497  0.31995219  0.89937629     0.25300
C403        C  0.28865854  0.28677125  0.90253082    -0.22700
C404        C  0.31376474  0.27743212  0.93086453     0.20200
F405        F  0.32818854  0.24522074  0.93475685    -0.12600
F406        F  0.35364076  0.29391467  0.97610157    -0.15000
F407        F  0.24838609  0.32899629  0.87342190    -0.15000
F408        F  0.27050827  0.37638505  0.91807780    -0.12600
N409        N  0.34954158  0.86629699  0.99201965    -0.01700
C410        C  0.33428294  0.86503564  0.45647980     0.00900
C411        C  0.34589597  0.89597446  0.42665844    -0.22000
C412        C  0.36553380  0.91634592  0.44642744    -0.22200
C413        C  0.37028214  0.89796446  0.98342419     0.00800
H414        H  0.34242123  0.90214640  0.39306372     0.14600
H415        H  0.38142222  0.94102964  0.43066295     0.14600
N416        N  0.05998873  0.81245276  0.02845792    -0.01700
C417        C  0.05197984  0.78695852  0.06544533     0.00900
C418        C  0.01424111  0.78304198  0.08288650    -0.22000
C419        C  0.99792865  0.80808412  0.05759685    -0.22200
C420        C  0.02635247  0.82730984  0.02583655     0.00800
H421        H  0.00083901  0.76703283  0.11398684     0.14600
H422        H  0.96931078  0.81522728  0.06605153     0.14600
N423        N  0.39247421  0.57225621  0.01460516    -0.01700
C424        C  0.39231205  0.59521051  0.04201429     0.00900
C425        C  0.42723364  0.60341658  0.04883529    -0.22000
C426        C  0.45059231  0.58341280  0.02702536    -0.22200
C427        C  0.42908440  0.56250035  0.00798843     0.00800
H428        H  0.43424638  0.61927635  0.07122771     0.14600
H429        H  0.47906467  0.58054876  0.03183035     0.14600
N430        N  0.46336260  0.89651592  0.51348340    -0.34800
N431        N  0.42774849  0.96298505  0.51107447    -0.55400
N432        N  0.49542789  0.49447164  0.02747291    -0.34800
N433        N  0.03347078  0.92715317  0.01746858    -0.55400
C434        C  0.43164473  0.89075690  0.49832627     0.28700
C435        C  0.98933862  0.87469918  0.49511764     0.28700
C436        C  0.48134259  0.52078243  0.00158811     0.28700
C437        C  0.03537956  0.50048333  0.02009201     0.28700
C438        C  0.39692697  0.94062082  0.51973384     0.37400
C439        C  0.41637751  0.99540922  0.51535899     0.37400
C440        C  0.04129603  0.89263779  0.02339438     0.37400
C441        C  0.05587565  0.94347209  0.03856375     0.37400
C442        C  0.43724389  0.86508545  0.47300464    -0.20100
C443        C  0.47293240  0.85452080  0.47367710    -0.20100
C444        C  0.51060636  0.54480083  0.97828017    -0.20100
C445        C  0.04577990  0.53184130  0.99035496    -0.20100
C446        C  0.36529475  0.95891740  0.52997390    -0.21200
C447        C  0.37766846  0.99356831  0.52776079    -0.21200
C448        C  0.07046122  0.88765470  0.04609396    -0.21200
C449        C  0.07929574  0.91965684  0.05619694    -0.21200
C450        C  0.39724218  0.90687925  0.50845524    -0.16500
C451        C  0.02058466  0.86584254  0.01057892    -0.16500
C452        C  0.05558619  0.97981025  0.04113177    -0.16500
C453        C  0.44136165  0.52697708  0.50234187    -0.16500
H454        H  0.41733400  0.85410300  0.45685293     0.16400
H455        H  0.98496594  0.83191184  0.45859478     0.16400
H456        H  0.50843927  0.56891421  0.95543131     0.16400
H457        H  0.07371534  0.54408527  0.97788426     0.16400
H458        H  0.33632574  0.94863046  0.53663196     0.14700
H459        H  0.35946365  0.51374512  0.52863328     0.14700
H460        H  0.08413318  0.86373856  0.05484249     0.14700
H461        H  0.10087952  0.92490879  0.07389970     0.14700
H462        H  0.46581578  0.91161045  0.53685634     0.27900
H463        H  0.48204700  0.97381250  0.04539169     0.27900
N464        N  0.09453729  0.51990447  0.08000508    -0.01700
C465        C  0.09498197  0.52185181  0.12228617     0.00900
C466        C  0.07342454  0.49323569  0.14945407    -0.22000
C467        C  0.05951328  0.97330620  0.12092389    -0.22200
C468        C  0.07233837  0.49065002  0.08048783     0.00800
H469        H  0.06796648  0.48737432  0.18472838     0.14600
H470        H  0.04208168  0.94889080  0.13216652     0.14600
O471        O  0.28558524  0.77181793  0.33250108    -0.73500
O472        O  0.26176190  0.73184245  0.39525249    -0.52400
C473        C  0.27938299  0.76101867  0.37426771     0.80200
O474        O  0.14114492  0.74751806  0.22390139    -0.58100
O475        O  0.17785482  0.72382319  0.17187298    -0.51200
C476        C  0.14976911  0.74086522  0.18519322     0.72200
O477        O  0.14589258  0.75301273  0.36239198    -0.72700
O478        O  0.18072971  0.72683739  0.41095472    -0.53200
C479        C  0.15469823  0.74731302  0.40033278     0.78200
O480        O  0.29549637  0.77367085  0.18787422    -0.57800
O481        O  0.26186964  0.74263677  0.15159215    -0.50900
C482        C  0.28605406  0.76757937  0.15271605     0.74800
Zr483      Zr  0.27577354  0.75149912  0.26669296     2.54700
O484        O  0.27081251  0.81519013  0.25283642    -0.78400
O485        O  0.34405113  0.75654884  0.25485871    -0.91800
Zr486      Zr  0.16461806  0.73545732  0.29237366     2.64700
O487        O  0.15900707  0.79898026  0.27429198    -0.96800
O488        O  0.09721932  0.72130984  0.31379965    -0.78800
O489        O  0.21994345  0.74255742  0.32056358    -0.82200
O490        O  0.22019656  0.74607920  0.23828733    -2.16900
O491        O  0.30267297  0.63528169  0.21091776    -0.65600
O492        O  0.26823973  0.66468655  0.16395358    -0.50100
C493        C  0.29357774  0.64390040  0.17311746     0.73200
O494        O  0.16143491  0.60774821  0.38851518    -0.58500
O495        O  0.18599904  0.64470234  0.42613082    -0.50500
C496        C  0.16680046  0.61685030  0.42390145     0.75000
O497        O  0.15635601  0.61448131  0.24662423    -0.69900
O498        O  0.18877790  0.64901362  0.18361036    -0.48600
C499        C  0.16521461  0.62296000  0.20460847     0.76400
O500        O  0.30927800  0.63273739  0.35203320    -0.65200
O501        O  0.27141372  0.65339111  0.40623644    -0.52400
C502        C  0.29978856  0.63608002  0.39207494     0.74800
Zr503      Zr  0.28501851  0.64816374  0.28437967     2.77500
O504        O  0.28220088  0.58385704  0.30152139    -0.96000
O505        O  0.35316137  0.65475426  0.26419797    -0.76800
Zr506      Zr  0.17482658  0.63216330  0.31042370     2.70100
O507        O  0.18717342  0.57006961  0.31567517    -0.78000
O508        O  0.10699522  0.62141092  0.33193993    -0.97100
Zr509      Zr  0.22483740  0.68962881  0.37152667     2.21500
Zr510      Zr  0.22472033  0.69472101  0.20693202     2.11100
O511        O  0.22996733  0.64109468  0.25617886    -2.45800
O512        O  0.22983020  0.63867365  0.33921286    -0.77800
O513        O  0.28106916  0.70117766  0.23399017    -0.70000
O514        O  0.16899297  0.68269427  0.34316069    -2.31000
O515        O  0.28108490  0.69886898  0.31688693    -2.27200
O516        O  0.16856337  0.68474570  0.26063297    -0.71800
H517        H  0.21821699  0.76688467  0.21675794     0.80200
H518        H  0.14712381  0.67910628  0.36633651     0.81300
H519        H  0.23163336  0.62130621  0.24155857     0.83500
H520        H  0.30277962  0.70162458  0.32977842     0.81100
H521        H  0.08669728  0.74350503  0.32018420     0.44200
H522        H  0.09690107  0.64098617  0.31345787     0.41000
H523        H  0.16202226  0.55756463  0.32153702     0.42800
H524        H  0.27467806  0.57636099  0.27609678     0.40800
H525        H  0.36034852  0.67509862  0.27646480     0.43900
H526        H  0.35012559  0.74946419  0.28421364     0.38700
H527        H  0.24947987  0.81899797  0.27539861     0.44800
H528        H  0.13303112  0.80245369  0.28814555     0.41200
H529        H  0.30870195  0.57798102  0.29968530     0.46100
H530        H  0.35076506  0.78229475  0.24664884     0.44900
H531        H  0.17502899  0.80909315  0.29156291     0.45000
H532        H  0.10107812  0.60013714  0.32067303     0.45300
C533        C  0.10921321  0.58736959  0.19484050     0.25400
C534        C  0.14685662  0.60045367  0.17954766    -0.22700
C535        C  0.16700983  0.58942672  0.14257317     0.20300
C536        C  0.15044696  0.56457513  0.12297609     0.25300
C537        C  0.11285544  0.55102786  0.13899209    -0.22700
C538        C  0.09241380  0.56357754  0.17457756     0.20200
F539        F  0.05577537  0.55254495  0.19023519    -0.12600
F540        F  0.08841509  0.59755373  0.22986827    -0.15000
F541        F  0.17202755  0.55225742  0.09020474    -0.15000
F542        F  0.20352501  0.60096725  0.12703684    -0.12600
C543        C  0.10607159  0.58480676  0.53476677     0.25400
C544        C  0.11366495  0.54413612  0.04205887    -0.22700
C545        C  0.14060716  0.53230765  0.01125914     0.20300
C546        C  0.15471019  0.55736519  0.47207800     0.25300
C547        C  0.14907348  0.59362701  0.46506492    -0.22700
C548        C  0.12512339  0.60733484  0.49687336     0.20200
F549        F  0.11873919  0.64222435  0.49014709    -0.12600
F550        F  0.08053797  0.59799372  0.56332415    -0.15000
F551        F  0.17783856  0.54367427  0.44167643    -0.15000
F552        F  0.14978162  0.49815961  0.01807433    -0.12600
C553        C  0.34627576  0.58146794  0.11091685     0.25400
C554        C  0.35918753  0.60401180  0.07037784    -0.22700
C555        C  0.34694134  0.63810815  0.06207398     0.20300
C556        C  0.32388379  0.65061574  0.09513941     0.25300
C557        C  0.31379657  0.62922871  0.13711109    -0.22700
C558        C  0.32374092  0.59409634  0.14431216     0.20200
F559        F  0.31240674  0.57240523  0.18386859    -0.12600
F560        F  0.35787561  0.54818170  0.11904438    -0.15000
F561        F  0.31376686  0.68443345  0.08699609    -0.15000
F562        F  0.35955512  0.65999350  0.02294387    -0.12600
C563        C  0.36311202  0.61809834  0.40984198     0.25400
C564        C  0.32371351  0.61824211  0.42318409    -0.22700
C565        C  0.30768010  0.59934208  0.46529932     0.20300
C566        C  0.33015371  0.58131039  0.49311560     0.25300
C567        C  0.36978746  0.58264748  0.48073234    -0.22700
C568        C  0.38572356  0.60109334  0.43825236     0.20200
F569        F  0.42358328  0.60482358  0.42515591    -0.12600
F570        F  0.38020327  0.63620673  0.36980919    -0.15000
F571        F  0.31306810  0.56351757  0.53326069    -0.15000
F572        F  0.27002038  0.59811986  0.47968704    -0.12600
C573        C  0.10797959  0.78501065  0.15418538     0.25400
C574        C  0.12553088  0.75315898  0.15365405    -0.22700
C575        C  0.11941358  0.73278791  0.12284447     0.20300
C576        C  0.09624917  0.74419249  0.09313308     0.25300
C577        C  0.07906132  0.77606236  0.09368170    -0.22700
C578        C  0.08470680  0.79618748  0.12467673     0.20200
F579        F  0.06655199  0.82609970  0.12743490    -0.12600
F580        F  0.11341339  0.80542449  0.18313716    -0.15000
F581        F  0.08989006  0.72381440  0.06450970    -0.15000
F582        F  0.13461537  0.70112470  0.12264252    -0.12600
C583        C  0.12548657  0.80375677  0.48758868     0.25400
C584        C  0.08606764  0.80307714  0.49121257    -0.22700
C585        C  0.07015826  0.78395731  0.46460264     0.20300
C586        C  0.09252252  0.76588122  0.43600232     0.25300
C587        C  0.13175013  0.76560881  0.43318543    -0.22700
C588        C  0.14802242  0.78524633  0.45903772     0.20200
F589        F  0.18576546  0.78694094  0.45625951    -0.12600
F590        F  0.13942583  0.80877698  0.02678714    -0.15000
F591        F  0.07533457  0.74718836  0.41215829    -0.15000
F592        F  0.03235459  0.78066457  0.46843751    -0.12600
C593        C  0.35810438  0.82267432  0.05869025     0.25400
C594        C  0.33493484  0.84307838  0.03408605    -0.22700
C595        C  0.29572623  0.83811895  0.04943580     0.20300
C596        C  0.28010989  0.81273358  0.08677033     0.25300
C597        C  0.30314974  0.79229399  0.11106038    -0.22700
C598        C  0.34237306  0.79786930  0.09694359     0.20200
F599        F  0.36552375  0.77853442  0.11959017    -0.12600
F600        F  0.39579386  0.82566170  0.04547549    -0.15000
F601        F  0.24225237  0.80890297  0.10003848    -0.15000
F602        F  0.27229994  0.85830744  0.02821596    -0.12600
C603        C  0.33006833  0.80160181  0.44847057     0.25400
C604        C  0.31555210  0.83519144  0.44399826    -0.22700
C605        C  0.28675944  0.84239871  0.42024657     0.20300
C606        C  0.27494121  0.81778195  0.39810326     0.25300
C607        C  0.29106367  0.78524368  0.40011511    -0.22700
C608        C  0.31749955  0.77648989  0.42684700     0.20200
F609        F  0.33257104  0.74457706  0.42990294    -0.12600
F610        F  0.35806650  0.79402912  0.47099500    -0.15000
F611        F  0.24796679  0.82584502  0.37412525    -0.15000
F612        F  0.27109429  0.87403203  0.41712335    -0.12600
N613        N  0.34595418  0.86522757  0.49475552    -0.01700
C614        C  0.33412331  0.86685221  0.95596856     0.00900
C615        C  0.34430314  0.89798576  0.92599869    -0.22000
C616        C  0.36698213  0.91762670  0.94335968    -0.22200
C617        C  0.36602801  0.89720069  0.48767855     0.00800
H618        H  0.33768996  0.90481139  0.89378403     0.14600
H619        H  0.38207531  0.94255252  0.92694648     0.14600
N620        N  0.06200835  0.81366188  0.52812350    -0.01700
C621        C  0.05440220  0.78938663  0.56617737     0.00900
C622        C  0.01702965  0.78688164  0.58528058    -0.22000
C623        C  0.00060105  0.81156009  0.55975284    -0.22200
C624        C  0.02860434  0.82916906  0.52615469     0.00800
H625        H  0.00419664  0.77204875  0.61729611     0.14600
H626        H  0.97250828  0.81976288  0.56894697     0.14600
N627        N  0.39300880  0.57473959  0.51407850    -0.01700
C628        C  0.39247196  0.59699520  0.54250060     0.00900
C629        C  0.42666165  0.60187131  0.55338744    -0.22000
C630        C  0.44945214  0.58053238  0.53330342    -0.22200
C631        C  0.42874174  0.56285338  0.51002216     0.00800
H632        H  0.43280149  0.61547230  0.57832333     0.14600
H633        H  0.47653106  0.57472082  0.54130467     0.14600
N634        N  0.46771001  0.89785220  0.00948107    -0.34800
N635        N  0.43210549  0.96512329  0.00340734    -0.55400
N636        N  0.49441519  0.49512873  0.52424178    -0.34800
N637        N  0.03602246  0.92908437  0.51761752    -0.55400
C638        C  0.43610222  0.89152146  0.99438168     0.28700
C639        C  0.98602423  0.87303734  0.99674459     0.28700
C640        C  0.48047237  0.52190497  0.49893707     0.28700
C641        C  0.03482344  0.50406181  0.51840710     0.28700
C642        C  0.40162800  0.94220668  0.01350566     0.37400
C643        C  0.42025761  0.99714113  0.00908130     0.37400
C644        C  0.04311411  0.89437357  0.52462546     0.37400
C645        C  0.05637334  0.94504904  0.54124132     0.37400
C646        C  0.44167128  0.86489340  0.97059366    -0.20100
C647        C  0.47707934  0.85398104  0.97271123    -0.20100
C648        C  0.50946381  0.54716170  0.47842354    -0.20100
C649        C  0.04485560  0.53503352  0.48786839    -0.20100
C650        C  0.36983595  0.95979939  0.02529092    -0.21200
C651        C  0.38167369  0.99451563  0.02314687    -0.21200
C652        C  0.06976479  0.88884405  0.55088427    -0.21200
C653        C  0.07777593  0.92077043  0.56181750    -0.21200
C654        C  0.40190457  0.90812392  0.00329268    -0.16500
C655        C  0.02346083  0.86772245  0.51015941    -0.16500
C656        C  0.05585979  0.98143922  0.54354356    -0.16500
C657        C  0.44219161  0.52576166  0.00474484    -0.16500
H658        H  0.42176646  0.85339418  0.95485346     0.16400
H659        H  0.98137079  0.83245815  0.95704677     0.16400
H660        H  0.50716759  0.57212364  0.45720314     0.16400
H661        H  0.07265196  0.54752166  0.47501901     0.16400
H662        H  0.34106286  0.94883621  0.03361631     0.14700
H663        H  0.36040580  0.51209460  0.03346732     0.14700
H664        H  0.08181020  0.86442163  0.56190611     0.14700
H665        H  0.09725671  0.92559034  0.58232720     0.14700
H666        H  0.47007761  0.91396213  0.03180116     0.27900
H667        H  0.47826021  0.97286616  0.55329512     0.27900
N668        N  0.09100688  0.52507248  0.57985137    -0.01700
C669        C  0.08862923  0.52816103  0.62222969     0.00900
C670        C  0.06563204  0.50040378  0.64910233    -0.22000
C671        C  0.05417452  0.97813826  0.62426025    -0.22200
C672        C  0.06947701  0.49553148  0.57998104     0.00800
H673        H  0.05822828  0.49563362  0.68431791     0.14600
H674        H  0.03421922  0.95542465  0.63561743     0.14600
O675        O  0.27926732  0.77371190  0.83564789    -0.73500
O676        O  0.25904099  0.73234221  0.89803549    -0.52400
C677        C  0.27406188  0.76271763  0.87736654     0.80200
O678        O  0.14270630  0.74536968  0.72363843    -0.58100
O679        O  0.17959413  0.72148897  0.67209275    -0.51200
C680        C  0.15159931  0.73876966  0.68489728     0.72200
O681        O  0.14727475  0.75410710  0.86242786    -0.72700
O682        O  0.17978697  0.72717644  0.91288310    -0.53200
C683        C  0.15506171  0.74863906  0.90081715     0.78200
O684        O  0.29315761  0.77249440  0.69090357    -0.57800
O685        O  0.26105090  0.74011844  0.65459550    -0.50900
C686        C  0.28407010  0.76588603  0.65573260     0.74800
Zr687      Zr  0.27587660  0.74972892  0.77001200     2.54700
O688        O  0.28313169  0.81405132  0.75175293    -0.78400
O689        O  0.34319675  0.74683299  0.76636007    -0.91800
Zr690      Zr  0.16485842  0.73570595  0.79311095     2.64700
O691        O  0.16446423  0.79971727  0.77295351    -0.96800
O692        O  0.09663153  0.73034143  0.81271429    -0.78800
O693        O  0.21948567  0.74183318  0.82262481    -0.82200
O694        O  0.22087558  0.74487675  0.74030541    -2.16900
O695        O  0.30263086  0.63090528  0.71693769    -0.65600
O696        O  0.26849104  0.66062201  0.67003655    -0.50100
C697        C  0.29381451  0.63972314  0.67908121     0.73200
O698        O  0.16084363  0.60641716  0.89035426    -0.58500
O699        O  0.18416390  0.64372419  0.92848723    -0.50500
C700        C  0.16603071  0.61538719  0.92582326     0.75000
O701        O  0.15211624  0.61599888  0.74911364    -0.69900
O702        O  0.18770522  0.64838472  0.68658618    -0.48600
C703        C  0.16221963  0.62393649  0.70719803     0.76400
O704        O  0.30640192  0.63046647  0.85639655    -0.65200
O705        O  0.26907786  0.65221767  0.91001826    -0.52400
C706        C  0.29704051  0.63427720  0.89615032     0.74800
Zr707      Zr  0.28317026  0.64613199  0.78873086     2.77500
O708        O  0.28010641  0.58184311  0.80705595    -0.96000
O709        O  0.35145043  0.65288290  0.77146822    -0.76800
Zr710      Zr  0.17216969  0.63223546  0.81292329     2.70100
O711        O  0.17883342  0.56942283  0.81505812    -0.78000
O712        O  0.10407260  0.62610266  0.83559017    -0.97100
Zr713      Zr  0.22309334  0.68901344  0.87444549     2.21500
Zr714      Zr  0.22471510  0.69274561  0.71019362     2.11100
O715        O  0.22824343  0.63931907  0.76010180    -2.45800
O716        O  0.22714624  0.63796963  0.84228734    -0.77800
O717        O  0.28097782  0.69913744  0.73745647    -0.70000
O718        O  0.16737517  0.68309613  0.84517217    -2.31000
O719        O  0.27990760  0.69714977  0.82087118    -2.27200
O720        O  0.16772347  0.68459030  0.76238377    -0.71800
H721        H  0.21926926  0.76557077  0.71846212     0.80200
H722        H  0.14543556  0.68014374  0.86819265     0.81300
H723        H  0.22961904  0.61938739  0.74573004     0.83500
H724        H  0.30136777  0.69972943  0.83422517     0.81100
H725        H  0.08866140  0.71471348  0.79426838     0.44200
H726        H  0.09694559  0.64956536  0.84122509     0.41000
H727        H  0.19074086  0.56125563  0.84042715     0.42800
H728        H  0.26235028  0.57555155  0.83535960     0.40800
H729        H  0.35757955  0.66867977  0.74239669     0.43900
H730        H  0.35315508  0.77179239  0.76002481     0.38700
H731        H  0.30713044  0.82031872  0.75987033     0.44800
H732        H  0.13784679  0.80467778  0.78151409     0.41200
H733        H  0.26648007  0.57400311  0.78594509     0.46100
H734        H  0.35236210  0.73826524  0.73915560     0.44900
H735        H  0.17729509  0.80883992  0.79389850     0.45000
H736        H  0.09442415  0.62410094  0.80898225     0.45300
C737        C  0.10405276  0.59649300  0.69059309     0.25400
C738        C  0.14335512  0.60277017  0.68142367    -0.22700
C739        C  0.16446333  0.58642866  0.64978092     0.20300
C740        C  0.14680051  0.56320583  0.62916983     0.25300
C741        C  0.10754024  0.55633780  0.63910295    -0.22700
C742        C  0.08639536  0.57384840  0.66947483     0.20200
F743        F  0.04840797  0.56865774  0.67915526    -0.12600
F744        F  0.08264853  0.61217480  0.72034797    -0.15000
F745        F  0.16833024  0.54563744  0.60174121    -0.15000
F746        F  0.20247626  0.59108151  0.64096323    -0.12600
C747        C  0.10520306  0.57967807  0.03531256     0.25400
C748        C  0.11177583  0.54853754  0.54192815    -0.22700
C749        C  0.13659889  0.53503424  0.51059558     0.20300
C750        C  0.15824386  0.55576085  0.97342944     0.25300
C751        C  0.14939275  0.59126864  0.96652207    -0.22700
C752        C  0.12314777  0.60322024  0.99780569     0.20200
F753        F  0.11365877  0.63726761  0.99096330    -0.12600
F754        F  0.07836281  0.59104166  0.06422430    -0.15000
F755        F  0.18411128  0.54401348  0.94371174    -0.15000
F756        F  0.14274935  0.50011506  0.51710496    -0.12600
C757        C  0.34891346  0.58048936  0.61289908     0.25400
C758        C  0.35913932  0.60371762  0.57232818    -0.22700
C759        C  0.34478398  0.63697504  0.56584487     0.20300
C760        C  0.32232582  0.64802236  0.60050426     0.25300
C761        C  0.31459762  0.62605120  0.64231294    -0.22700
C762        C  0.32712027  0.59173834  0.64801836     0.20200
F763        F  0.31914245  0.56954062  0.68755973    -0.12600
F764        F  0.36270777  0.54799655  0.61917644    -0.15000
F765        F  0.31051007  0.68129110  0.59388487    -0.15000
F766        F  0.35476650  0.65965461  0.52684905    -0.12600
C767        C  0.36061639  0.61782451  0.91300228     0.25400
C768        C  0.32119255  0.61646814  0.92675655    -0.22700
C769        C  0.30568011  0.59554594  0.96785234     0.20300
C770        C  0.32890920  0.57766092  0.99486204     0.25300
C771        C  0.36862146  0.58036337  0.98197297    -0.22700
C772        C  0.38383604  0.60043322  0.94016510     0.20200
F773        F  0.42160165  0.60547451  0.92669536    -0.12600
F774        F  0.37709137  0.63753938  0.87363146    -0.15000
F775        F  0.31249022  0.55889520  0.03476320    -0.15000
F776        F  0.26788762  0.59203484  0.98178368    -0.12600
C777        C  0.10833832  0.78249442  0.65690757     0.25400
C778        C  0.12815074  0.75226563  0.65277743    -0.22700
C779        C  0.12509634  0.73522202  0.61785107     0.20300
C780        C  0.10233796  0.74813534  0.58811958     0.25300
C781        C  0.08248746  0.77809412  0.59287474    -0.22700
C782        C  0.08561776  0.79509358  0.62745671     0.20200
F783        F  0.06543413  0.82330238  0.63376904    -0.12600
F784        F  0.11078872  0.79996885  0.68959283    -0.15000
F785        F  0.09837703  0.73057617  0.55593160    -0.15000
F786        F  0.14270747  0.70522310  0.61354364    -0.12600
C787        C  0.12444630  0.79816069  0.99495819     0.25400
C788        C  0.08693598  0.80512266  0.99139922    -0.22700
C789        C  0.07425562  0.79643603  0.95521300     0.20300
C790        C  0.09661760  0.77893384  0.92612919     0.25300
C791        C  0.13265386  0.76867475  0.93215704    -0.22700
C792        C  0.14666209  0.77951545  0.96641324     0.20200
F793        F  0.18191900  0.77233687  0.97219970    -0.12600
F794        F  0.14203304  0.82150409  0.51283253    -0.15000
F795        F  0.08171302  0.77044064  0.89300993    -0.15000
F796        F  0.03896581  0.80262070  0.94920158    -0.12600
C797        C  0.35386770  0.82638262  0.56522751     0.25400
C798        C  0.33093522  0.84078105  0.53592189    -0.22700
C799        C  0.29228214  0.82940697  0.54674196     0.20300
C800        C  0.27763071  0.80386322  0.58429592     0.25300
C801        C  0.30047440  0.79051156  0.61388628    -0.22700
C802        C  0.33866579  0.80226775  0.60404853     0.20200
F803        F  0.36174731  0.78936532  0.63143407    -0.12600
F804        F  0.39127260  0.83416156  0.55608334    -0.15000
F805        F  0.24061347  0.79311928  0.59249753    -0.15000
F806        F  0.26813847  0.84361766  0.52145459    -0.12600
C807        C  0.32815300  0.80371473  0.94813348     0.25400
C808        C  0.31338231  0.83711510  0.94545837    -0.22700
C809        C  0.28280941  0.84414830  0.92443273     0.20300
C810        C  0.26946785  0.81950310  0.90303303     0.25300
C811        C  0.28577460  0.78706153  0.90339802    -0.22700
C812        C  0.31397040  0.77859768  0.92771051     0.20200
F813        F  0.32948918  0.74697132  0.92907533    -0.12600
F814        F  0.35832618  0.79650949  0.96707307    -0.15000
F815        F  0.24108498  0.82754978  0.88122633    -0.15000
F816        F  0.26703835  0.87568174  0.92292117    -0.12600
N817        N  0.84565557  0.36593358  0.99997501    -0.01700
C818        C  0.83580810  0.36482777  0.46179424     0.00900
C819        C  0.84720361  0.39533580  0.43095130    -0.22000
C820        C  0.86816871  0.41607154  0.44887251    -0.22200
C821        C  0.86695825  0.39738675  0.99187426     0.00800
H822        H  0.84247276  0.40118261  0.39783683     0.14600
H823        H  0.88381740  0.44060344  0.43192845     0.14600
N824        N  0.56455265  0.31315347  0.03222880    -0.01700
C825        C  0.55642524  0.28815355  0.06958450     0.00900
C826        C  0.51894312  0.28581549  0.08824333    -0.22000
C827        C  0.50313462  0.31157060  0.06341026    -0.22200
C828        C  0.53155189  0.32924073  0.03041579     0.00800
H829        H  0.50575122  0.27058149  0.11990150     0.14600
H830        H  0.47512876  0.32000064  0.07246026     0.14600
N831        N  0.89373643  0.07337346  0.01866351    -0.01700
C832        C  0.89408832  0.09537742  0.04725452     0.00900
C833        C  0.92832972  0.09842707  0.05880359    -0.22000
C834        C  0.95010782  0.07633552  0.03874130    -0.22200
C835        C  0.92882394  0.06016980  0.01470129     0.00800
H836        H  0.93499248  0.11136359  0.08406695     0.14600
H837        H  0.97685591  0.06914020  0.04679941     0.14600
N838        N  0.96936837  0.39958641  0.50971433    -0.34800
N839        N  0.93147033  0.46580109  0.50958604    -0.55400
N840        N  0.99445494  0.99192839  0.02257054    -0.34800
N841        N  0.53864190  0.42917889  0.01883163    -0.55400
C842        C  0.93652457  0.39265388  0.49738590     0.28700
C843        C  0.49256530  0.37596521  0.49525374     0.28700
C844        C  0.97948206  0.01922253  0.99933475     0.28700
C845        C  0.53464762  0.00278853  0.02060762     0.28700
C846        C  0.90140059  0.44231383  0.52002306     0.37400
C847        C  0.91919290  0.49781735  0.51511247     0.37400
C848        C  0.54702202  0.39481325  0.02548668     0.37400
C849        C  0.55910674  0.44579220  0.04160008     0.37400
C850        C  0.94130704  0.36670142  0.47241308    -0.20100
C851        C  0.97761877  0.35720799  0.47034546    -0.20100
C852        C  0.00793967  0.04504667  0.97896119    -0.20100
C853        C  0.54541075  0.03480334  0.99226817    -0.20100
C854        C  0.86940429  0.45956620  0.53232670    -0.21200
C855        C  0.88071908  0.49460564  0.52973099    -0.21200
C856        C  0.57497218  0.39030049  0.04999560    -0.21200
C857        C  0.58217774  0.42245051  0.06080881    -0.21200
C858        C  0.90199738  0.40826653  0.50915382    -0.16500
C859        C  0.52699255  0.36755921  0.01276244    -0.16500
C860        C  0.55657975  0.48171179  0.04522007    -0.16500
C861        C  0.94157301  0.02555797  0.50495649    -0.16500
H862        H  0.92051210  0.35486162  0.45818293     0.16400
H863        H  0.49037697  0.33380927  0.45737008     0.16400
H864        H  0.00487936  0.07051381  0.95926675     0.16400
H865        H  0.57295852  0.04815695  0.98248646     0.16400
H866        H  0.84076374  0.44825262  0.54088587     0.14700
H867        H  0.86040110  0.01288087  0.53791449     0.14700
H868        H  0.58839251  0.36641170  0.05983648     0.14700
H869        H  0.60212051  0.42804983  0.08043162     0.14700
H870        H  0.97281301  0.41525587  0.53220226     0.27900
H871        H  0.98263952  0.47291061  0.04946208     0.27900
N872        N  0.59030357  0.02336946  0.08406280    -0.01700
C873        C  0.58931521  0.02558960  0.12655347     0.00900
C874        C  0.56693248  0.99734048  0.15328855    -0.22000
C875        C  0.55221226  0.47573224  0.12669064    -0.22200
C876        C  0.56846968  0.99398557  0.08393592     0.00800
H877        H  0.56058306  0.99171100  0.18856521     0.14600
H878        H  0.53375870  0.45189974  0.13640869     0.14600
O879        O  0.78299715  0.27015082  0.34117888    -0.73500
O880        O  0.76067528  0.22952092  0.40369634    -0.52400
C881        C  0.77687621  0.25946844  0.38306117     0.80200
O882        O  0.64325706  0.24826213  0.22981957    -0.58100
O883        O  0.67910907  0.22279710  0.17892924    -0.51200
C884        C  0.65179388  0.24098039  0.19139832     0.72200
O885        O  0.64915273  0.25405434  0.36795719    -0.72700
O886        O  0.68161020  0.22578971  0.41785408    -0.53200
C887        C  0.65706974  0.24770395  0.40629187     0.78200
O888        O  0.79657430  0.26984690  0.19542852    -0.57800
O889        O  0.76173067  0.23977770  0.15937395    -0.50900
C890        C  0.78626287  0.26441254  0.16037781     0.74800
Zr891      Zr  0.77743692  0.24799932  0.27469118     2.54700
O892        O  0.77773038  0.31221363  0.25821769    -0.78400
O893        O  0.84538408  0.25106563  0.26783520    -0.91800
Zr894      Zr  0.66649751  0.23574987  0.29851370     2.64700
O895        O  0.66959928  0.29999212  0.27823724    -0.96800
O896        O  0.59840275  0.22927971  0.31937197    -0.78800
O897        O  0.72143620  0.24033304  0.32789917    -0.82200
O898        O  0.72221875  0.24397774  0.24517263    -2.16900
O899        O  0.80033955  0.13099835  0.21848902    -0.65600
O900        O  0.76719505  0.16155306  0.17110190    -0.50100
C901        C  0.79202968  0.14018553  0.18031492     0.73200
O902        O  0.65799454  0.10718774  0.39558409    -0.58500
O903        O  0.68443658  0.14252025  0.43364386    -0.50500
C904        C  0.66424188  0.11537127  0.43110125     0.75000
O905        O  0.65356227  0.11395631  0.25354955    -0.69900
O906        O  0.68757677  0.14755888  0.19084279    -0.48600
C907        C  0.66303304  0.12224118  0.21155356     0.76400
O908        O  0.80575975  0.12709302  0.36044832    -0.65200
O909        O  0.76990015  0.14976050  0.41430435    -0.52400
C910        C  0.79722161  0.13124432  0.40025611     0.74800
Zr911      Zr  0.78314855  0.14432376  0.29200819     2.77500
O912        O  0.78693782  0.08046550  0.30664640    -0.96000
O913        O  0.85088312  0.15574101  0.27022666    -0.76800
Zr914      Zr  0.67160922  0.13188578  0.31758908     2.70100
O915        O  0.67394771  0.06799117  0.32807745    -0.78000
O916        O  0.60324905  0.12857993  0.33432320    -0.97100
Zr917      Zr  0.72424267  0.18706774  0.37917256     2.21500
Zr918      Zr  0.72460860  0.19216501  0.21456903     2.11100
O919        O  0.72753389  0.13818521  0.26431581    -2.45800
O920        O  0.72725459  0.13633319  0.34610971    -0.77800
O921        O  0.78111930  0.19763161  0.24163850    -0.70000
O922        O  0.66819986  0.18258563  0.35016544    -2.31000
O923        O  0.78088091  0.19482548  0.32504928    -2.27200
O924        O  0.66795736  0.18476295  0.26727941    -0.71800
H925        H  0.72093900  0.26480336  0.22340025     0.80200
H926        H  0.64631569  0.17993398  0.37321884     0.81300
H927        H  0.72858652  0.11826864  0.24992612     0.83500
H928        H  0.80251650  0.19684679  0.33826870     0.81100
H929        H  0.59052457  0.25381219  0.31517574     0.44200
H930        H  0.59670653  0.13944923  0.36025524     0.41000
H931        H  0.64730190  0.05891436  0.33518179     0.42800
H932        H  0.77083258  0.07173784  0.28843498     0.40800
H933        H  0.86130735  0.13418649  0.28439975     0.43900
H934        H  0.85345021  0.23014125  0.25570441     0.38700
H935        H  0.76066151  0.31756161  0.23727163     0.44800
H936        H  0.64978112  0.30741694  0.29986776     0.41200
H937        H  0.81282489  0.07679861  0.29269230     0.46100
H938        H  0.84965174  0.24573893  0.29815645     0.44900
H939        H  0.69341789  0.30780168  0.28555872     0.45000
H940        H  0.59614793  0.14574264  0.31033148     0.45300
C941        C  0.60530490  0.09147756  0.19815852     0.25400
C942        C  0.64413424  0.10065863  0.18596461    -0.22700
C943        C  0.66463146  0.08706443  0.15124314     0.20300
C944        C  0.64695599  0.06380322  0.13052772     0.25300
C945        C  0.60823231  0.05379455  0.14377506    -0.22700
C946        C  0.58766331  0.06858701  0.17734478     0.20200
F947        F  0.55013669  0.06065523  0.19036416    -0.12600
F948        F  0.58422819  0.10472326  0.23053188    -0.15000
F949        F  0.66825933  0.04949257  0.09937083    -0.15000
F950        F  0.70227501  0.09451115  0.13914357    -0.12600
C951        C  0.60279086  0.08139642  0.54117615     0.25400
C952        C  0.61117172  0.04692584  0.04646989    -0.22700
C953        C  0.63641717  0.03351810  0.01550799     0.20300
C954        C  0.65312336  0.05554275  0.47850800     0.25300
C955        C  0.64658157  0.09164006  0.47194008    -0.22700
C956        C  0.62181222  0.10456629  0.50377010     0.20200
F957        F  0.61493249  0.13933325  0.49769853    -0.12600
F958        F  0.57720152  0.09386936  0.57039982    -0.15000
F959        F  0.67749946  0.04270320  0.44839333    -0.15000
F960        F  0.64271777  0.99863383  0.02217191    -0.12600
C961        C  0.85127926  0.08115905  0.11833057     0.25400
C962        C  0.86092831  0.10297058  0.07678333    -0.22700
C963        C  0.84457909  0.13511923  0.06787532     0.20300
C964        C  0.82021667  0.14640663  0.10111458     0.25300
C965        C  0.81301698  0.12594613  0.14394504    -0.22700
C966        C  0.82764448  0.09262710  0.15180948     0.20200
F967        F  0.82009461  0.07165760  0.19216592    -0.12600
F968        F  0.86729877  0.04995408  0.12724044    -0.15000
F969        F  0.80602089  0.17849821  0.09203922    -0.15000
F970        F  0.85427108  0.15656918  0.02794862    -0.12600
C971        C  0.86098254  0.11360241  0.41595573     0.25400
C972        C  0.82178409  0.11369707  0.43077444    -0.22700
C973        C  0.80699583  0.09578593  0.47378505     0.20300
C974        C  0.83072852  0.07941638  0.50126931     0.25300
C975        C  0.87020504  0.08070136  0.48696927    -0.22700
C976        C  0.88466507  0.09763761  0.44353989     0.20200
F977        F  0.92232842  0.10133449  0.42875049    -0.12600
F978        F  0.87694314  0.13099770  0.37516471    -0.15000
F979        F  0.81514186  0.06354359  0.54281596    -0.15000
F980        F  0.76947559  0.09405781  0.48937911    -0.12600
C981        C  0.61133119  0.28584770  0.15899730     0.25400
C982        C  0.62849823  0.25377722  0.15899384    -0.22700
C983        C  0.62309526  0.23366867  0.12762155     0.20300
C984        C  0.60093709  0.24550628  0.09693780     0.25300
C985        C  0.58388732  0.27745266  0.09726045    -0.22700
C986        C  0.58893831  0.29735517  0.12865708     0.20200
F987        F  0.57061828  0.32719788  0.13127262    -0.12600
F988        F  0.61605803  0.30606134  0.18838820    -0.15000
F989        F  0.59484586  0.22512920  0.06820140    -0.15000
F990        F  0.63781678  0.20174175  0.12792593    -0.12600
C991        C  0.62756935  0.30251414  0.49535528     0.25400
C992        C  0.58864490  0.30460955  0.49580316    -0.22700
C993        C  0.57354753  0.28839291  0.46607389     0.20300
C994        C  0.59595469  0.27030759  0.43771598     0.25300
C995        C  0.63440721  0.26679022  0.43838194    -0.22700
C996        C  0.65013076  0.28368065  0.46719835     0.20200
F997        F  0.68728396  0.28222955  0.46790997    -0.12600
F998        F  0.64456807  0.31666354  0.01937022    -0.15000
F999        F  0.57925497  0.25453679  0.41076738    -0.15000
F1000       F  0.53612971  0.28742824  0.46681107    -0.12600
C1001       C  0.85565398  0.32494346  0.06844463     0.25400
C1002       C  0.83170578  0.34162835  0.04165545    -0.22700
C1003       C  0.79274049  0.33222615  0.05507369     0.20300
C1004       C  0.77855949  0.30598682  0.09205907     0.25300
C1005       C  0.80241830  0.28963546  0.11870657    -0.22700
C1006       C  0.84109742  0.29971201  0.10671582     0.20200
F1007       F  0.86509578  0.28425298  0.13143376    -0.12600
F1008       F  0.89320285  0.33187407  0.05752027    -0.15000
F1009       F  0.74101534  0.29750338  0.10274066    -0.15000
F1010       F  0.76790341  0.34904500  0.03269591    -0.12600
C1011       C  0.82466582  0.29990989  0.46051683     0.25400
C1012       C  0.81436095  0.33505169  0.45152406    -0.22700
C1013       C  0.78754200  0.34319445  0.42495936     0.20300
C1014       C  0.77519429  0.31833402  0.40327158     0.25300
C1015       C  0.78789048  0.28421415  0.40926869    -0.22700
C1016       C  0.81084555  0.27444753  0.44007374     0.20200
F1017       F  0.82177870  0.24092676  0.44819033    -0.12600
F1018       F  0.85003587  0.29070775  0.48632399    -0.15000
F1019       F  0.75099720  0.32772835  0.37593083    -0.15000
F1020       F  0.77449454  0.37597567  0.41838268    -0.12600
N1021       N  0.84951863  0.36568984  0.49883034    -0.01700
C1022       C  0.83023035  0.36727778  0.96362082     0.00900
C1023       C  0.84061773  0.39888734  0.93452818    -0.22000
C1024       C  0.86339570  0.41783996  0.95241705    -0.22200
C1025       C  0.86992260  0.39768946  0.49005999     0.00800
H1026       H  0.83456549  0.40643049  0.90213013     0.14600
H1027       H  0.87884804  0.44267505  0.93633857     0.14600
N1028       N  0.56342936  0.31441808  0.53241956    -0.01700
C1029       C  0.55438171  0.28938694  0.56976514     0.00900
C1030       C  0.51671449  0.28751385  0.58750838    -0.22000
C1031       C  0.50157388  0.31325350  0.56192018    -0.22200
C1032       C  0.53052046  0.33066482  0.52944763     0.00800
H1033       H  0.50279642  0.27222132  0.61883211     0.14600
H1034       H  0.47351368  0.32183012  0.57010167     0.14600
N1035       N  0.89516014  0.07477361  0.51857281    -0.01700
C1036       C  0.89711773  0.09896073  0.54420420     0.00900
C1037       C  0.93210271  0.10283399  0.55361099    -0.22000
C1038       C  0.95256147  0.07881606  0.53590199    -0.22200
C1039       C  0.93008625  0.06120528  0.51444524     0.00800
H1040       H  0.93998402  0.11740315  0.57685452     0.14600
H1041       H  0.97947759  0.07197471  0.54367257     0.14600
N1042       N  0.96666911  0.39625459  0.01140592    -0.34800
N1043       N  0.93102435  0.46368870  0.00966105    -0.55400
N1044       N  0.99534480  0.99326607  0.52340472    -0.34800
N1045       N  0.53746291  0.43070872  0.51838854    -0.55400
C1046       C  0.93374202  0.39004518  0.99889754     0.28700
C1047       C  0.49300049  0.37437062  0.99777606     0.28700
C1048       C  0.98074527  0.02023625  0.49923086     0.28700
C1049       C  0.53133469  0.00055328  0.52557528     0.28700
C1050       C  0.90055797  0.44065217  0.02131992     0.37400
C1051       C  0.91952298  0.49581756  0.01563280     0.37400
C1052       C  0.54508077  0.39613609  0.52604996     0.37400
C1053       C  0.55677009  0.44712892  0.54251130     0.37400
C1054       C  0.93749584  0.36311808  0.97534609    -0.20100
C1055       C  0.97323830  0.35209044  0.97475135    -0.20100
C1056       C  0.00942408  0.04582483  0.47864838    -0.20100
C1057       C  0.54247441  0.03108985  0.49458934    -0.20100
C1058       C  0.86918741  0.45830645  0.03476947    -0.21200
C1059       C  0.88123079  0.49316607  0.03161462    -0.21200
C1060       C  0.57116977  0.39115197  0.55308222    -0.21200
C1061       C  0.57834560  0.42338278  0.56371593    -0.21200
C1062       C  0.89986918  0.40672188  0.01037974    -0.16500
C1063       C  0.52600266  0.36908490  0.51180153    -0.16500
C1064       C  0.55441801  0.48320332  0.54570085    -0.16500
C1065       C  0.94026960  0.02447852  0.00541487    -0.16500
H1066       H  0.91620655  0.35144191  0.96165049     0.16400
H1067       H  0.48971981  0.33259074  0.95957014     0.16400
H1068       H  0.00661436  0.07109259  0.45835055     0.16400
H1069       H  0.57044786  0.04336574  0.48282409     0.16400
H1070       H  0.84043097  0.44734905  0.04447792     0.14700
H1071       H  0.85904850  0.01276522  0.03825435     0.14700
H1072       H  0.58288098  0.36677902  0.56533075     0.14700
H1073       H  0.59699521  0.42866037  0.58495193     0.14700
H1074       H  0.97060175  0.41245596  0.03314571     0.27900
H1075       H  0.98246268  0.47666228  0.54977945     0.27900
N1076       N  0.58955749  0.02137384  0.58575220    -0.01700
C1077       C  0.59049911  0.02339575  0.62794669     0.00900
C1078       C  0.56935646  0.99471617  0.65543960    -0.22000
C1079       C  0.54935744  0.47789293  0.62742397    -0.22200
C1080       C  0.56782231  0.99161375  0.58662168     0.00800
H1081       H  0.56451737  0.98887856  0.69069908     0.14600
H1082       H  0.53027367  0.45448955  0.63725171     0.14600
O1083       O  0.77818624  0.27426188  0.84011149    -0.73500
O1084       O  0.75831063  0.23235736  0.90205224    -0.52400
C1085       C  0.77290679  0.26301455  0.88179413     0.80200
O1086       O  0.64019156  0.24133522  0.72905294    -0.58100
O1087       O  0.67932902  0.22107098  0.67589057    -0.51200
C1088       C  0.65001305  0.23638921  0.68969962     0.72200
O1089       O  0.64438998  0.24984019  0.86692507    -0.72700
O1090       O  0.68023060  0.22561710  0.91536785    -0.53200
C1091       C  0.65391454  0.24548425  0.90442787     0.78200
O1092       O  0.79514687  0.27342514  0.69514672    -0.57800
O1093       O  0.76271838  0.24188371  0.65818227    -0.50900
C1094       C  0.78637959  0.26713412  0.65975253     0.74800
Zr1095     Zr  0.77356957  0.25195831  0.77373215     2.54700
O1096       O  0.76618437  0.31520662  0.75741611    -0.78400
O1097       O  0.84113520  0.26134890  0.76724406    -0.91800
Zr1098     Zr  0.66328224  0.23157047  0.79763707     2.64700
O1099       O  0.65879244  0.29529843  0.78016136    -0.96800
O1100       O  0.59564081  0.21817523  0.81689372    -0.78800
O1101       O  0.71755065  0.24044731  0.82673616    -0.82200
O1102       O  0.71899996  0.24411157  0.74405547    -2.16900
O1103       O  0.80699595  0.13797427  0.71617358    -0.65600
O1104       O  0.77109738  0.16444941  0.66924005    -0.50100
C1105       C  0.79787109  0.14552966  0.67834083     0.73200
O1106       O  0.66269423  0.10564654  0.89368850    -0.58500
O1107       O  0.68541640  0.14338619  0.93165701    -0.50500
C1108       C  0.66692664  0.11522978  0.92918464     0.75000
O1109       O  0.65834060  0.11201478  0.75161040    -0.69900
O1110       O  0.68997405  0.14734659  0.68874967    -0.48600
C1111       C  0.66644260  0.12120832  0.70964410     0.76400
O1112       O  0.80986040  0.13307875  0.85841263    -0.65200
O1113       O  0.77100489  0.15259866  0.91278326    -0.52400
C1114       C  0.79975856  0.13577743  0.89858100     0.74800
Zr1115     Zr  0.78769737  0.14971459  0.78974500     2.77500
O1116       O  0.79725496  0.08673706  0.80208109    -0.96000
O1117       O  0.85475760  0.16596512  0.76904477    -0.76800
Zr1118     Zr  0.67733963  0.12913347  0.81537539     2.70100
O1119       O  0.68909443  0.06678713  0.82242538    -0.78000
O1120       O  0.60945467  0.11715447  0.83195912    -0.97100
Zr1121     Zr  0.72443391  0.18814815  0.87731520     2.21500
Zr1122     Zr  0.72603278  0.19296222  0.71235912     2.11100
O1123       O  0.73305503  0.13964976  0.76154639    -2.45800
O1124       O  0.73208261  0.13764858  0.84410105    -0.77800
O1125       O  0.78159873  0.20221140  0.73996740    -0.70000
O1126       O  0.66897278  0.17927631  0.84865131    -2.31000
O1127       O  0.78109539  0.19968866  0.82345201    -2.27200
O1128       O  0.66985472  0.18118635  0.76572798    -0.71800
H1129       H  0.71654978  0.26467853  0.72241351     0.80200
H1130       H  0.64693587  0.17518327  0.87161814     0.81300
H1131       H  0.73576880  0.11994330  0.74679861     0.83500
H1132       H  0.80238454  0.20313978  0.83677102     0.81100
H1133       H  0.58556147  0.23823249  0.82959108     0.44200
H1134       H  0.60570045  0.09128519  0.83454332     0.41000
H1135       H  0.71567747  0.06573747  0.82546858     0.42800
H1136       H  0.78508618  0.07761934  0.78062321     0.40800
H1137       H  0.86676644  0.14330933  0.77452427     0.43900
H1138       H  0.85184021  0.24262533  0.75231204     0.38700
H1139       H  0.73993888  0.31773030  0.77124585     0.44800
H1140       H  0.66657191  0.30201752  0.74806703     0.41200
H1141       H  0.82445062  0.08539153  0.79148064     0.46100
H1142       H  0.84567434  0.25449972  0.79733800     0.44900
H1143       H  0.63152122  0.29849143  0.78586075     0.45000
H1144       H  0.60130334  0.12105539  0.86202646     0.45300
C1145       C  0.60826157  0.08964160  0.69859287     0.25400
C1146       C  0.64682543  0.09969843  0.68455356    -0.22700
C1147       C  0.66646907  0.08649987  0.64905108     0.20300
C1148       C  0.64827001  0.06286633  0.62922711     0.25300
C1149       C  0.60984915  0.05196574  0.64429624    -0.22700
C1150       C  0.59016403  0.06615439  0.67895478     0.20200
F1151       F  0.55310427  0.05688708  0.69440301    -0.12600
F1152       F  0.58790941  0.10248508  0.73180764    -0.15000
F1153       F  0.66892815  0.04894126  0.59726525    -0.15000
F1154       F  0.70389836  0.09462483  0.63539037    -0.12600
C1155       C  0.60561693  0.08322566  0.03963156     0.25400
C1156       C  0.60912104  0.04526868  0.54759291    -0.22700
C1157       C  0.63483497  0.03255981  0.51642224     0.20300
C1158       C  0.65493081  0.05594333  0.97735525     0.25300
C1159       C  0.64886117  0.09210116  0.97014949    -0.22700
C1160       C  0.62449525  0.10575702  0.00167272     0.20200
F1161       F  0.61758089  0.14052722  0.99462295    -0.12600
F1162       F  0.58060980  0.09644456  0.06871282    -0.15000
F1163       F  0.67889982  0.04246581  0.94748921    -0.15000
F1164       F  0.64210628  0.99789513  0.52289738    -0.12600
C1165       C  0.85902912  0.08722818  0.61793889     0.25400
C1166       C  0.86534911  0.10705134  0.57516643    -0.22700
C1167       C  0.84738032  0.13819872  0.56559401     0.20300
C1168       C  0.82426615  0.15031206  0.59907188     0.25300
C1169       C  0.81961799  0.13149284  0.64252627    -0.22700
C1170       C  0.83646702  0.09941472  0.65145384     0.20200
F1171       F  0.83193908  0.08026810  0.69272857    -0.12600
F1172       F  0.87722887  0.05741107  0.62768862    -0.15000
F1173       F  0.80853024  0.18155595  0.58935968    -0.15000
F1174       F  0.85411151  0.15787738  0.52449239    -0.12600
C1175       C  0.86310448  0.11853716  0.91610673     0.25400
C1176       C  0.82366639  0.11783084  0.92952804    -0.22700
C1177       C  0.80779698  0.09774781  0.97106330     0.20300
C1178       C  0.83058918  0.07964315  0.99843743     0.25300
C1179       C  0.87021841  0.08147707  0.98574542    -0.22700
C1180       C  0.88589759  0.10081023  0.94368055     0.20200
F1181       F  0.92372597  0.10468199  0.93029475    -0.12600
F1182       F  0.88001560  0.13810333  0.87681508    -0.15000
F1183       F  0.81383858  0.06135941  0.03846542    -0.15000
F1184       F  0.77005875  0.09542820  0.98526667    -0.12600
C1185       C  0.60521255  0.27920792  0.66345577     0.25400
C1186       C  0.62618736  0.24984764  0.65800544    -0.22700
C1187       C  0.62429132  0.23394409  0.62190676     0.20300
C1188       C  0.60179007  0.24729077  0.59204007     0.25300
C1189       C  0.58124617  0.27674415  0.59768915    -0.22700
C1190       C  0.58300945  0.29243071  0.63365915     0.20200
F1191       F  0.56238816  0.32028675  0.64050709    -0.12600
F1192       F  0.60636707  0.29548393  0.69747310    -0.15000
F1193       F  0.59912852  0.23084855  0.55852803    -0.15000
F1194       F  0.64303571  0.20474966  0.61638523    -0.12600
C1195       C  0.62744936  0.30125515  0.99251076     0.25400
C1196       C  0.58832593  0.30303150  0.99491077    -0.22700
C1197       C  0.57183973  0.28647574  0.96641333     0.20300
C1198       C  0.59322749  0.26815729  0.93750893     0.25300
C1199       C  0.63197107  0.26500525  0.93633933    -0.22700
C1200       C  0.64900516  0.28251541  0.96358467     0.20200
F1201       F  0.68655793  0.28182239  0.96189110    -0.12600
F1202       F  0.64340735  0.31746895  0.52358566    -0.15000
F1203       F  0.57531431  0.25182173  0.91204258    -0.15000
F1204       F  0.53417450  0.28540129  0.96896560    -0.12600
C1205       C  0.85812537  0.32476548  0.56748185     0.25400
C1206       C  0.83472763  0.34277649  0.54105646    -0.22700
C1207       C  0.79552551  0.33554025  0.55473002     0.20300
C1208       C  0.78027080  0.31011460  0.59212633     0.25300
C1209       C  0.80351390  0.29203167  0.61826635    -0.22700
C1210       C  0.84263128  0.30002677  0.60593682     0.20200
F1211       F  0.86597510  0.28300881  0.63043185    -0.12600
F1212       F  0.89590470  0.32987935  0.55556386    -0.15000
F1213       F  0.74242742  0.30393977  0.60361220    -0.15000
F1214       F  0.77168824  0.35341496  0.53174268    -0.12600
C1215       C  0.82152725  0.30324121  0.95829165     0.25400
C1216       C  0.80979391  0.33793511  0.95132355    -0.22700
C1217       C  0.78243312  0.34610116  0.92544676     0.20300
C1218       C  0.77032952  0.32151774  0.90318180     0.25300
C1219       C  0.78367865  0.28762927  0.90817867    -0.22700
C1220       C  0.80782430  0.27802280  0.93758912     0.20200
F1221       F  0.82021833  0.24498443  0.94382226    -0.12600
F1222       F  0.84833881  0.29438648  0.98218075    -0.15000
F1223       F  0.74582950  0.33096263  0.87622395    -0.15000
F1224       F  0.76845564  0.37852585  0.92026532    -0.12600
N1225       N  0.83985388  0.86564633  0.99827846    -0.01700
C1226       C  0.82671205  0.86718467  0.46051095     0.00900
C1227       C  0.83870154  0.89766397  0.42991315    -0.22000
C1228       C  0.86264482  0.91630418  0.44677552    -0.22200
C1229       C  0.86220578  0.89645184  0.98969499     0.00800
H1230       H  0.83296921  0.90438027  0.39727522     0.14600
H1231       H  0.87928094  0.94027630  0.42970171     0.14600
N1232       N  0.56323120  0.81281835  0.03289633    -0.01700
C1233       C  0.55493274  0.78799787  0.07045770     0.00900
C1234       C  0.51761093  0.78668938  0.08965091    -0.22000
C1235       C  0.50203350  0.81248191  0.06459891    -0.22200
C1236       C  0.53036847  0.82927234  0.03091346     0.00800
H1237       H  0.50444081  0.77191497  0.12158009     0.14600
H1238       H  0.47434327  0.82155447  0.07379301     0.14600
N1239       N  0.89613022  0.57462891  0.01612844    -0.01700
C1240       C  0.89730541  0.59883422  0.04201064     0.00900
C1241       C  0.93286548  0.60602344  0.04789221    -0.22000
C1242       C  0.95488058  0.58410971  0.02772427    -0.22200
C1243       C  0.93228808  0.56343383  0.00972796     0.00800
H1244       H  0.94089333  0.62171938  0.06995107     0.14600
H1245       H  0.98309104  0.58007747  0.03294488     0.14600
N1246       N  0.96400560  0.89706434  0.50959656    -0.34800
N1247       N  0.92786195  0.96325401  0.50679064    -0.55400
N1248       N  0.99790019  0.49343821  0.02598788    -0.34800
N1249       N  0.53884080  0.92918719  0.01906538    -0.55400
C1250       C  0.93154703  0.89010356  0.49638216     0.28700
C1251       C  0.48871875  0.87433630  0.49858922     0.28700
C1252       C  0.98376010  0.52068862  0.00150282     0.28700
C1253       C  0.53267735  0.50227194  0.02213703     0.28700
C1254       C  0.89734045  0.94031161  0.51758601     0.37400
C1255       C  0.91639102  0.99516539  0.51345618     0.37400
C1256       C  0.54568648  0.89444170  0.02717402     0.37400
C1257       C  0.55837864  0.94539224  0.04316815     0.37400
C1258       C  0.93654150  0.86333525  0.47270509    -0.20100
C1259       C  0.97271657  0.85342436  0.47236747    -0.20100
C1260       C  0.01323093  0.54452045  0.97832005    -0.20100
C1261       C  0.54304739  0.53318717  0.99160337    -0.20100
C1262       C  0.86583844  0.95785218  0.53078271    -0.21200
C1263       C  0.87799998  0.99250414  0.52888830    -0.21200
C1264       C  0.57149180  0.88907456  0.05450914    -0.21200
C1265       C  0.57923694  0.92124365  0.06493999    -0.21200
C1266       C  0.89717887  0.90634973  0.50688430    -0.16500
C1267       C  0.52624707  0.86761345  0.01297523    -0.16500
C1268       C  0.55730662  0.98177021  0.04530887    -0.16500
C1269       C  0.94380868  0.52882613  0.50547864    -0.16500
H1270       H  0.91585766  0.85121251  0.45855825     0.16400
H1271       H  0.48541234  0.83372462  0.45871431     0.16400
H1272       H  0.01121424  0.56914356  0.95630649     0.16400
H1273       H  0.57086867  0.54591402  0.97977271     0.16400
H1274       H  0.83705715  0.94691633  0.53989075     0.14700
H1275       H  0.86249436  0.51487221  0.53760383     0.14700
H1276       H  0.58285483  0.86455312  0.06680693     0.14700
H1277       H  0.59800105  0.92625881  0.08616418     0.14700
H1278       H  0.96706879  0.91311814  0.53176720     0.27900
H1279       H  0.97974652  0.97037983  0.04480139     0.27900
N1280       N  0.58797384  0.52268568  0.08561570    -0.01700
C1281       C  0.58659325  0.52389808  0.12847494     0.00900
C1282       C  0.56454917  0.49500061  0.15428403    -0.22000
C1283       C  0.55392587  0.97752874  0.12660011    -0.22200
C1284       C  0.56688074  0.49315275  0.08449881     0.00800
H1285       H  0.55816141  0.48843687  0.18954187     0.14600
H1286       H  0.53500834  0.95403169  0.13725074     0.14600
O1287       O  0.77669027  0.77270278  0.33809842    -0.73500
O1288       O  0.75690178  0.73164367  0.40086701    -0.52400
C1289       C  0.77121365  0.76213030  0.37989175     0.80200
O1290       O  0.64158648  0.74159225  0.22833337    -0.58100
O1291       O  0.67891547  0.71816823  0.17663693    -0.51200
C1292       C  0.65099760  0.73552165  0.18942346     0.72200
O1293       O  0.64440543  0.74906251  0.36752658    -0.72700
O1294       O  0.67901641  0.72438790  0.41695564    -0.53200
C1295       C  0.65317355  0.74461613  0.40542823     0.78200
O1296       O  0.79084013  0.77089999  0.19378562    -0.57800
O1297       O  0.75880353  0.73791120  0.15808318    -0.50900
C1298       C  0.78152159  0.76413123  0.15883533     0.74800
Zr1299     Zr  0.77321316  0.74833141  0.27290610     2.54700
O1300       O  0.77326693  0.81241943  0.25453653    -0.78400
O1301       O  0.84116630  0.75166000  0.26593569    -0.91800
Zr1302     Zr  0.66232525  0.73020882  0.29834709     2.64700
O1303       O  0.65412506  0.79332949  0.28166084    -0.96800
O1304       O  0.59498064  0.71549815  0.31877383    -0.78800
O1305       O  0.71720233  0.73896518  0.32629310    -0.82200
O1306       O  0.71800518  0.74097494  0.24463729    -2.16900
O1307       O  0.80641335  0.63466028  0.21807439    -0.65600
O1308       O  0.76975241  0.66016644  0.17150802    -0.50100
C1309       C  0.79727840  0.64203598  0.18019098     0.73200
O1310       O  0.65889799  0.60596793  0.39743790    -0.58500
O1311       O  0.68341890  0.64363485  0.43414825    -0.50500
C1312       C  0.66394768  0.61583993  0.43249643     0.75000
O1313       O  0.65242285  0.61085771  0.25608586    -0.69900
O1314       O  0.68614622  0.64391101  0.19278214    -0.48600
C1315       C  0.66127100  0.61906741  0.21411508     0.76400
O1316       O  0.80623101  0.62988909  0.36038833    -0.65200
O1317       O  0.76921090  0.65185850  0.41398666    -0.52400
C1318       C  0.79720763  0.63413839  0.39998584     0.74800
Zr1319     Zr  0.78418947  0.64523105  0.29199847     2.77500
O1320       O  0.78590990  0.58114262  0.30556898    -0.96000
O1321       O  0.85232817  0.65313784  0.27856437    -0.76800
Zr1322     Zr  0.67376534  0.62745603  0.31863736     2.70100
O1323       O  0.68516259  0.56502586  0.32543266    -0.78000
O1324       O  0.60597234  0.61508260  0.33823228    -0.97100
Zr1325     Zr  0.72269375  0.68689330  0.37815922     2.21500
Zr1326     Zr  0.72406551  0.68913969  0.21414147     2.11100
O1327       O  0.72930969  0.63591969  0.26423895    -2.45800
O1328       O  0.72882905  0.63529389  0.34691734    -0.77800
O1329       O  0.78016047  0.69764030  0.24080499    -0.70000
O1330       O  0.66683561  0.67841470  0.35035668    -2.31000
O1331       O  0.77924009  0.69635606  0.32392253    -2.27200
O1332       O  0.66766232  0.67918115  0.26758942    -0.71800
H1333       H  0.71563298  0.76148529  0.22287673     0.80200
H1334       H  0.64490996  0.67508119  0.37342532     0.81300
H1335       H  0.73150320  0.61604039  0.24977048     0.83500
H1336       H  0.80069903  0.69966379  0.33701625     0.81100
H1337       H  0.59154441  0.69200708  0.31136321     0.44200
H1338       H  0.60245942  0.58980136  0.35258779     0.41000
H1339       H  0.69549094  0.55893017  0.35238008     0.42800
H1340       H  0.76704143  0.57269908  0.33260859     0.40800
H1341       H  0.86092043  0.62929883  0.27668677     0.43900
H1342       H  0.84868275  0.72811978  0.26098928     0.38700
H1343       H  0.74705331  0.81699509  0.25186259     0.44800
H1344       H  0.62795292  0.79575535  0.29585276     0.41200
H1345       H  0.77477754  0.57362436  0.28234409     0.46100
H1346       H  0.84544338  0.75234104  0.29559907     0.44900
H1347       H  0.66978591  0.80382826  0.29900783     0.45000
H1348       H  0.59760671  0.62792612  0.36203997     0.45300
C1349       C  0.60332177  0.58646521  0.20379109     0.25400
C1350       C  0.64158881  0.59767895  0.18919714    -0.22700
C1351       C  0.66131546  0.58601370  0.15260543     0.20300
C1352       C  0.64363833  0.56274296  0.13210921     0.25300
C1353       C  0.60537956  0.55133919  0.14686460    -0.22700
C1354       C  0.58546876  0.56391533  0.18277311     0.20200
F1355       F  0.54848986  0.55406578  0.19799521    -0.12600
F1356       F  0.58302011  0.59729731  0.23866418    -0.15000
F1357       F  0.66477933  0.54955598  0.09982359    -0.15000
F1358       F  0.69848992  0.59528200  0.13839478    -0.12600
C1359       C  0.60169104  0.58394002  0.54247883     0.25400
C1360       C  0.60845665  0.54715176  0.04844018    -0.22700
C1361       C  0.63503546  0.53488871  0.01771760     0.20300
C1362       C  0.65320763  0.55726567  0.48172114     0.25300
C1363       C  0.64610421  0.59315233  0.47381903    -0.22700
C1364       C  0.62097585  0.60666959  0.50482172     0.20200
F1365       F  0.61389562  0.64140322  0.49761649    -0.12600
F1366       F  0.57607309  0.59685157  0.57126206    -0.15000
F1367       F  0.67857345  0.54416929  0.45284787    -0.15000
F1368       F  0.64300737  0.50042110  0.02425085    -0.12600
C1369       C  0.86004370  0.58562353  0.11691620     0.25400
C1370       C  0.86560470  0.60590230  0.07439252    -0.22700
C1371       C  0.84679481  0.63675651  0.06613611     0.20300
C1372       C  0.82386553  0.64817315  0.10044824     0.25300
C1373       C  0.81988284  0.62894287  0.14365616    -0.22700
C1374       C  0.83758454  0.59714743  0.15136901     0.20200
F1375       F  0.83358815  0.57743598  0.19227799    -0.12600
F1376       F  0.87824115  0.55563465  0.12535619    -0.15000
F1377       F  0.80734707  0.67909712  0.09165574    -0.15000
F1378       F  0.85205850  0.65662170  0.02521105    -0.12600
C1379       C  0.86120878  0.61852224  0.41497565     0.25400
C1380       C  0.82200522  0.61731658  0.43011297    -0.22700
C1381       C  0.80741150  0.59782897  0.47228960     0.20300
C1382       C  0.83139310  0.58069120  0.49872620     0.25300
C1383       C  0.87085206  0.58301245  0.48423070    -0.22700
C1384       C  0.88515655  0.60191792  0.44156138     0.20200
F1385       F  0.92278731  0.60697212  0.42677785    -0.12600
F1386       F  0.87678942  0.63762389  0.37489637    -0.15000
F1387       F  0.81615724  0.56349082  0.53981421    -0.15000
F1388       F  0.76988785  0.59533794  0.48804805    -0.12600
C1389       C  0.60787280  0.77948436  0.16203557     0.25400
C1390       C  0.62816846  0.74967679  0.15706567    -0.22700
C1391       C  0.62604483  0.73354986  0.12118202     0.20300
C1392       C  0.60295501  0.74641763  0.09188180     0.25300
C1393       C  0.58256925  0.77595470  0.09747145    -0.22700
C1394       C  0.58545049  0.79249218  0.13248777     0.20200
F1395       F  0.56540770  0.82075410  0.13896845    -0.12600
F1396       F  0.60960878  0.79619590  0.19556476    -0.15000
F1397       F  0.59952781  0.72939135  0.05907565    -0.15000
F1398       F  0.64504351  0.70454084  0.11537400    -0.12600
C1399       C  0.62439900  0.80016971  0.49370873     0.25400
C1400       C  0.58565458  0.80303918  0.49385696    -0.22700
C1401       C  0.57053992  0.78806542  0.46308603     0.20300
C1402       C  0.59261008  0.76953495  0.43494534     0.25300
C1403       C  0.63065501  0.76441679  0.43682334    -0.22700
C1404       C  0.64643980  0.78052416  0.46624982     0.20200
F1405       F  0.68313132  0.77729076  0.46854245    -0.12600
F1406       F  0.64322284  0.81432657  0.02463491    -0.15000
F1407       F  0.57587602  0.75494785  0.40704574    -0.15000
F1408       F  0.53345205  0.78902041  0.46216284    -0.12600
C1409       C  0.85030997  0.82186583  0.06381009     0.25400
C1410       C  0.82607589  0.84133103  0.03988776    -0.22700
C1411       C  0.78697655  0.83419739  0.05543823     0.20300
C1412       C  0.77274880  0.80820893  0.09283982     0.25300
C1413       C  0.79702358  0.78940598  0.11698998    -0.22700
C1414       C  0.83596837  0.79681566  0.10227165     0.20200
F1415       F  0.86030264  0.77891475  0.12447093    -0.12600
F1416       F  0.88780078  0.82543303  0.04913378    -0.15000
F1417       F  0.73501691  0.80217808  0.10629871    -0.15000
F1418       F  0.76228234  0.85270622  0.03443067    -0.12600
C1419       C  0.81858744  0.80319704  0.45612096     0.25400
C1420       C  0.80612230  0.83758738  0.44923423    -0.22700
C1421       C  0.77846667  0.84526574  0.42372084     0.20300
C1422       C  0.76701256  0.82055015  0.40123468     0.25300
C1423       C  0.78144200  0.78712204  0.40582051    -0.22700
C1424       C  0.80557522  0.77786088  0.43526149     0.20200
F1425       F  0.81859211  0.74506073  0.44136159    -0.12600
F1426       F  0.84557101  0.79486449  0.47991711    -0.15000
F1427       F  0.74217013  0.82937028  0.37453582    -0.15000
F1428       F  0.76380762  0.87738700  0.41900227    -0.12600
N1429       N  0.84189358  0.86635282  0.49688594    -0.01700
C1430       C  0.82454319  0.86700115  0.96195196     0.00900
C1431       C  0.83623383  0.89797477  0.93205313    -0.22000
C1432       C  0.85970882  0.91652777  0.94961207    -0.22200
C1433       C  0.86500065  0.89682446  0.48723755     0.00800
H1434       H  0.83078134  0.90510865  0.89933022     0.14600
H1435       H  0.87613314  0.94076201  0.93311155     0.14600
N1436       N  0.56066592  0.81224351  0.53108520    -0.01700
C1437       C  0.55226016  0.78668095  0.56796202     0.00900
C1438       C  0.51438891  0.78309745  0.58504944    -0.22000
C1439       C  0.49858545  0.80873296  0.56005554    -0.22200
C1440       C  0.52737216  0.82776234  0.52867794     0.00800
H1441       H  0.50068034  0.76712290  0.61604431     0.14600
H1442       H  0.47017548  0.81638907  0.56857611     0.14600
N1443       N  0.89553019  0.57689897  0.51593334    -0.01700
C1444       C  0.89703668  0.60254313  0.53962307     0.00900
C1445       C  0.93281131  0.61056092  0.54418297    -0.22000
C1446       C  0.95459025  0.58775060  0.52519771    -0.22200
C1447       C  0.93157310  0.56586127  0.50921925     0.00800
H1448       H  0.94123434  0.62757681  0.56460445     0.14600
H1449       H  0.98310573  0.58437488  0.52960332     0.14600
N1450       N  0.96083700  0.89495296  0.01260395    -0.34800
N1451       N  0.92590154  0.96192188  0.00914427    -0.55400
N1452       N  0.99739199  0.49684915  0.52549221    -0.34800
N1453       N  0.53481054  0.92740440  0.52271933    -0.55400
C1454       C  0.92851226  0.88909981  0.99859005     0.28700
C1455       C  0.49290921  0.87485511  0.99648246     0.28700
C1456       C  0.98291834  0.52351608  0.50064745     0.28700
C1457       C  0.53118682  0.50381381  0.52152119     0.28700
C1458       C  0.89508025  0.93933256  0.02028741     0.37400
C1459       C  0.91485399  0.99416198  0.01485057     0.37400
C1460       C  0.54200170  0.89272092  0.52919181     0.37400
C1461       C  0.55541169  0.94314895  0.54619536     0.37400
C1462       C  0.93352013  0.86372384  0.97287689    -0.20100
C1463       C  0.96939475  0.85317545  0.97247454    -0.20100
C1464       C  0.01202404  0.54721778  0.47624427    -0.20100
C1465       C  0.54145272  0.53584144  0.49308992    -0.20100
C1466       C  0.86383496  0.95739994  0.03286630    -0.21200
C1467       C  0.87644612  0.99202929  0.03010816    -0.21200
C1468       C  0.56890472  0.88688852  0.55506862    -0.21200
C1469       C  0.57716237  0.91875845  0.56606855    -0.21200
C1470       C  0.89439201  0.90544270  0.00952690    -0.16500
C1471       C  0.52232730  0.86653285  0.51417125    -0.16500
C1472       C  0.55471907  0.97941798  0.54898380    -0.16500
C1473       C  0.94457488  0.52642419  0.00578657    -0.16500
H1474       H  0.91303872  0.85291931  0.95728262     0.16400
H1475       H  0.48926658  0.83242285  0.95925550     0.16400
H1476       H  0.00957674  0.57147453  0.45378257     0.16400
H1477       H  0.56888485  0.54958130  0.48351758     0.16400
H1478       H  0.83489732  0.94689267  0.04176401     0.14700
H1479       H  0.86355363  0.51362284  0.04028945     0.14700
H1480       H  0.58075633  0.86229144  0.56605523     0.14700
H1481       H  0.59693678  0.92343827  0.58629266     0.14700
H1482       H  0.96400058  0.91012075  0.03569386     0.27900
H1483       H  0.98033973  0.97195953  0.54580876     0.27900
N1484       N  0.58651567  0.52377632  0.58630194    -0.01700
C1485       C  0.58563584  0.52489474  0.62901694     0.00900
C1486       C  0.56262202  0.49671037  0.65496374    -0.22000
C1487       C  0.55520914  0.97482297  0.62958318    -0.22200
C1488       C  0.56440764  0.49491484  0.58513121     0.00800
H1489       H  0.55626727  0.49030429  0.69022773     0.14600
H1490       H  0.53674487  0.95106559  0.64104556     0.14600
O1491       O  0.77755965  0.77266144  0.83768892    -0.73500
O1492       O  0.75775175  0.73142169  0.90029241    -0.52400
C1493       C  0.77197166  0.76194393  0.87944788     0.80200
O1494       O  0.63923455  0.74522251  0.72913874    -0.58100
O1495       O  0.67633042  0.72177355  0.67739823    -0.51200
C1496       C  0.64826729  0.73901560  0.69022732     0.72200
O1497       O  0.64617898  0.75151923  0.86757052    -0.72700
O1498       O  0.68098578  0.72575268  0.91629362    -0.53200
C1499       C  0.65543358  0.74661156  0.90525769     0.78200
O1500       O  0.78941698  0.77338855  0.69326948    -0.57800
O1501       O  0.75785151  0.74055732  0.65701500    -0.50900
C1502       C  0.78048988  0.76672295  0.65812652     0.74800
Zr1503     Zr  0.77275734  0.74967344  0.77199108     2.54700
O1504       O  0.77126243  0.81377392  0.75849674    -0.78400
O1505       O  0.84095343  0.75321608  0.76087227    -0.91800
Zr1506     Zr  0.66185992  0.73251223  0.79828235     2.64700
O1507       O  0.65371834  0.79574082  0.78506226    -0.96800
O1508       O  0.59439829  0.71803816  0.81869266    -0.78800
O1509       O  0.71731535  0.73955892  0.82590091    -0.82200
O1510       O  0.71719807  0.74346467  0.74387879    -2.16900
O1511       O  0.80355553  0.63663180  0.71456747    -0.65600
O1512       O  0.76726708  0.66336960  0.66831279    -0.50100
C1513       C  0.79440707  0.64458266  0.67670695     0.73200
O1514       O  0.65833348  0.60761312  0.89633186    -0.58500
O1515       O  0.68339797  0.64457427  0.93349812    -0.50500
C1516       C  0.66359368  0.61702521  0.93166068     0.75000
O1517       O  0.65472295  0.61164496  0.75370845    -0.69900
O1518       O  0.68612606  0.64641438  0.69024196    -0.48600
C1519       C  0.66279860  0.62039431  0.71172102     0.76400
O1520       O  0.80712048  0.62972675  0.85737019    -0.65200
O1521       O  0.77045911  0.65106428  0.91172485    -0.52400
C1522       C  0.79840573  0.63326107  0.89738517     0.74800
Zr1523     Zr  0.78345149  0.64635028  0.78950945     2.77500
O1524       O  0.78269766  0.58208913  0.80124110    -0.96000
O1525       O  0.85177989  0.65298251  0.77446454    -0.76800
Zr1526     Zr  0.67236585  0.62999157  0.81737150     2.70100
O1527       O  0.67298841  0.56594846  0.82823934    -0.78000
O1528       O  0.60406392  0.62679705  0.83378952    -0.97100
Zr1529     Zr  0.72334438  0.68724115  0.87720210     2.21500
Zr1530     Zr  0.72259425  0.69191426  0.71276750     2.11100
O1531       O  0.72781372  0.63839380  0.76265828    -2.45800
O1532       O  0.72830882  0.63611864  0.84489994    -0.77800
O1533       O  0.77902380  0.69932699  0.73921955    -0.70000
O1534       O  0.66673228  0.68037434  0.85001390    -2.31000
O1535       O  0.77936752  0.69719893  0.82209466    -2.27200
O1536       O  0.66639296  0.68191271  0.76656223    -0.71800
H1537       H  0.71485843  0.76415373  0.72236836     0.80200
H1538       H  0.64511707  0.67695675  0.87347599     0.81300
H1539       H  0.72974578  0.61855686  0.74810951     0.83500
H1540       H  0.80115036  0.70031490  0.83472618     0.81100
H1541       H  0.59045939  0.70249296  0.84789585     0.44200
H1542       H  0.59707616  0.64434191  0.81008772     0.41000
H1543       H  0.69980882  0.56148529  0.82025372     0.42800
H1544       H  0.78943004  0.57658149  0.77178522     0.40800
H1545       H  0.85901394  0.66389476  0.74311787     0.43900
H1546       H  0.84867778  0.77780746  0.74534105     0.38700
H1547       H  0.79729230  0.82277300  0.74450882     0.44800
H1548       H  0.66890815  0.80512150  0.75568364     0.41200
H1549       H  0.80470115  0.57594294  0.81473958     0.46100
H1550       H  0.84881463  0.73869975  0.73868779     0.44900
H1551       H  0.62737759  0.79770334  0.78126338     0.45000
H1552       H  0.59642660  0.60363313  0.82792158     0.45300
C1553       C  0.60452409  0.58948960  0.70091330     0.25400
C1554       C  0.64323799  0.59864716  0.68722676    -0.22700
C1555       C  0.66295924  0.58465144  0.65251334     0.20300
C1556       C  0.64447197  0.56129673  0.63277416     0.25300
C1557       C  0.60566536  0.55188244  0.64683775    -0.22700
C1558       C  0.58605866  0.56649217  0.68110868     0.20200
F1559       F  0.54872737  0.55832629  0.69579522    -0.12600
F1560       F  0.58438254  0.60293750  0.73373074    -0.15000
F1561       F  0.66510007  0.54621758  0.60190541    -0.15000
F1562       F  0.70058201  0.59186142  0.63946703    -0.12600
C1563       C  0.60182994  0.58324674  0.04214409     0.25400
C1564       C  0.60776202  0.54772425  0.54939757    -0.22700
C1565       C  0.63439756  0.53475225  0.51954829     0.20300
C1566       C  0.65352391  0.55804737  0.98015976     0.25300
C1567       C  0.64598320  0.59383175  0.97299334    -0.22700
C1568       C  0.62075025  0.60660324  0.00468977     0.20200
F1569       F  0.61330760  0.64124467  0.99851525    -0.12600
F1570       F  0.57602928  0.59545489  0.07142763    -0.15000
F1571       F  0.67911485  0.54568059  0.95078897    -0.15000
F1572       F  0.64214674  0.50024693  0.52736605    -0.12600
C1573       C  0.85865488  0.58919385  0.61368198     0.25400
C1574       C  0.86535129  0.61010253  0.57158146    -0.22700
C1575       C  0.84619340  0.64072662  0.56296498     0.20300
C1576       C  0.82172980  0.65129138  0.59685641     0.25300
C1577       C  0.81693063  0.63160302  0.63996173    -0.22700
C1578       C  0.83472964  0.59984980  0.64766522     0.20200
F1579       F  0.82940931  0.57929942  0.68818840    -0.12600
F1580       F  0.87703163  0.55933658  0.62224817    -0.15000
F1581       F  0.80445453  0.68175721  0.58785005    -0.15000
F1582       F  0.85240190  0.66107007  0.52224480    -0.12600
C1583       C  0.86183359  0.61236700  0.91244007     0.25400
C1584       C  0.82306071  0.61528203  0.92790359    -0.22700
C1585       C  0.80842661  0.59906512  0.97164132     0.20300
C1586       C  0.83170903  0.58147932  0.99892961     0.25300
C1587       C  0.87102466  0.58100588  0.98445092    -0.22700
C1588       C  0.88536434  0.59615501  0.94025497     0.20200
F1589       F  0.92279204  0.59735470  0.92441449    -0.12600
F1590       F  0.87770267  0.62692384  0.87051168    -0.15000
F1591       F  0.81581803  0.56588890  0.04046574    -0.15000
F1592       F  0.77135848  0.59999005  0.98816808    -0.12600
C1593       C  0.60011434  0.77895561  0.66431647     0.25400
C1594       C  0.62474963  0.75219454  0.65776426    -0.22700
C1595       C  0.62633262  0.73772723  0.61983834     0.20300
C1596       C  0.60315434  0.74907445  0.59012835     0.25300
C1597       C  0.57911366  0.77597247  0.59672408    -0.22700
C1598       C  0.57801004  0.79100756  0.63378630     0.20200
F1599       F  0.55468627  0.81700056  0.64093626    -0.12600
F1600       F  0.59719057  0.79357374  0.70024937    -0.15000
F1601       F  0.60340027  0.73298549  0.55571589    -0.15000
F1602       F  0.64930267  0.71163748  0.61204518    -0.12600
C1603       C  0.62716145  0.80050057  0.99569776     0.25400
C1604       C  0.58843211  0.80376117  0.99574324    -0.22700
C1605       C  0.57334098  0.78951169  0.96452941     0.20300
C1606       C  0.59528881  0.77148723  0.93576759     0.25300
C1607       C  0.63337608  0.76627224  0.93721173    -0.22700
C1608       C  0.64929185  0.78174726  0.96709069     0.20200
F1609       F  0.68620736  0.77899053  0.96847767    -0.12600
F1610       F  0.64042408  0.81483123  0.52202422    -0.15000
F1611       F  0.57830704  0.75738632  0.90769910    -0.15000
F1612       F  0.53623275  0.79035099  0.96400606    -0.12600
C1613       C  0.85062218  0.82660375  0.56661567     0.25400
C1614       C  0.82719768  0.84291582  0.53900134    -0.22700
C1615       C  0.78807925  0.83380108  0.55191853     0.20300
C1616       C  0.77335636  0.80793362  0.58914592     0.25300
C1617       C  0.79678717  0.79183458  0.61646806    -0.22700
C1618       C  0.83549036  0.80194734  0.60518398     0.20200
F1619       F  0.85897102  0.78704056  0.63096952    -0.12600
F1620       F  0.88823765  0.83326883  0.55605163    -0.15000
F1621       F  0.73578095  0.79955822  0.59935181    -0.15000
F1622       F  0.76364300  0.85046344  0.52877086    -0.12600
C1623       C  0.81730589  0.80313214  0.95691620     0.25400
C1624       C  0.80465130  0.83746532  0.94980998    -0.22700
C1625       C  0.77785300  0.84515672  0.92306871     0.20300
C1626       C  0.76694863  0.82028563  0.90050595     0.25300
C1627       C  0.78156201  0.78695699  0.90552980    -0.22700
C1628       C  0.80504970  0.77778806  0.93565218     0.20200
F1629       F  0.81819429  0.74505257  0.94210830    -0.12600
F1630       F  0.84405964  0.79487632  0.98102186    -0.15000
F1631       F  0.74234244  0.82880011  0.87341719    -0.15000
F1632       F  0.76365537  0.87746160  0.91700386    -0.12600
loop_ 
_geom_bond_atom_site_label_1 
_geom_bond_atom_site_label_2 
_geom_bond_distance 
_geom_bond_site_symmetry_2 
_ccdc_geom_bond_type 
N1            C5   1.370       .  A
N1          C206   1.365       .  A
N1          C186   1.458   1_556  S
C2          N205   1.366       .  A
C2            C3   1.381       .  A
C2          C196   1.481       .  S
C3            C4   1.359       .  A
C3            H6   1.082       .  S
C4          C209   1.382       .  A
C4            H7   1.083       .  S
C5          C208   1.381       .  A
C5          C246   1.486   1_556  S
N8           C12   1.376       .  A
N8            C9   1.361       .  A
N8          C380   1.460   1_554  S
C9           C10   1.375       .  A
C9          C169   1.470       .  S
C10          C11   1.360       .  A
C10          H13   1.083       .  S
C11          C12   1.387       .  A
C11          H14   1.083   1_455  S
C12          C43   1.509       .  S
N15          C19   1.382       .  A
N15          C16   1.358       .  A
N15         C363   1.470   1_554  S
C16          C17   1.366       .  A
C16         C146   1.452       .  S
C17          C18   1.349       .  A
C17          H20   1.083       .  S
C18          C19   1.397       .  A
C18          H21   1.080       .  S
C19         C249   1.521       .  S
N22          C26   1.359       .  A
N22         C843   1.361       .  A
N22          H54   1.043       .  S
N23          C30   1.347       .  A
N23          C31   1.356       .  A
N24          C28   1.358   1_564  A
N24         C845   1.351   1_565  A
N24         H463   1.044       .  S
N25          C32   1.358       .  A
N25          C33   1.356       .  A
C26          C34   1.389       .  A
C26          C42   1.427       .  A
C27         N838   1.363       .  A
C27         C247   1.423   1_655  A
C27         C851   1.384       .  A
C28          C36   1.389       .  A
C28         C249   1.428   1_556  A
C29         N840   1.353   1_445  A
C29          C37   1.382   1_554  A
C29         C452   1.412   1_545  A
C30          C42   1.417       .  A
C30          C38   1.388       .  A
C31          C39   1.385       .  A
C31         C453   1.419       .  A
C32          C40   1.387       .  A
C32          C43   1.424       .  A
C33          C41   1.385       .  A
C33          C44   1.420       .  A
C34          C35   1.377       .  A
C34          H46   1.082       .  S
C35         C843   1.385       .  A
C35         H863   1.080       .  S
C36         C853   1.382       .  A
C36          H48   1.083       .  S
C37         C852   1.382       .  A
C37          H49   1.077       .  S
C38          C39   1.383       .  A
C38          H50   1.083       .  S
C39         H459   1.077       .  S
C40          C41   1.378       .  A
C40          H52   1.078       .  S
C41          H53   1.082       .  S
C42         C209   1.489       .  S
C43         C231   1.424   1_454  A
C44         C437   1.413       .  A
C44         C468   1.511       .  S
C45         C232   1.428       .  A
C45         C439   1.419   1_545  A
C45         C223   1.523       .  S
H47         C851   1.079       .  S
H51         C447   1.075   1_545  S
H55         N432   1.045       .  S
N56          C60   1.370   1_545  A
N56          C57   1.368       .  A
N56         C136   1.432       .  S
C57          C58   1.384   1_545  A
C57         C129   1.513       .  S
C58         C467   1.377       .  A
C58          H61   1.082       .  S
C59         C466   1.379       .  A
C59         C468   1.384       .  A
C59          H62   1.082       .  S
C60         C467   1.384       .  A
C60         C452   1.517       .  S
O63         Zr75   2.446       .  S
O63          C65   1.289       .  A
O64        Zr101   2.404       .  S
O64          C65   1.282       .  A
C65         C199   1.463       .  S
O66         Zr78   2.453       .  S
O66          C68   1.291       .  A
O67        Zr102   2.383       .  S
O67          C68   1.278       .  A
C68         C166   1.476       .  S
O69         Zr78   2.429       .  S
O69          C71   1.286       .  A
O70        Zr101   2.505       .  S
O70          C71   1.302       .  A
C71         C179   1.513       .  S
O72         Zr75   2.444       .  S
O72          C74   1.287       .  A
O73        Zr102   2.463       .  S
O73          C74   1.293       .  A
C74         C189   1.488       .  S
Zr75         O76   2.434       .  S
Zr75         O77   2.437       .  S
Zr75         O81   2.366       .  S
Zr75         O82   2.375       .  S
Zr75        O105   2.376       .  S
Zr75        O107   2.371       .  S
O76         H119   0.990       .  S
O77         H118   0.990       .  S
O77         H122   0.989       .  S
Zr78         O79   2.435       .  S
Zr78         O80   2.434       .  S
Zr78         O82   2.361       .  S
Zr78         O81   2.373       .  S
Zr78        O106   2.380       .  S
Zr78        O108   2.363       .  S
O79         H120   0.990       .  S
O79         H123   0.990       .  S
O80         H113   0.990       .  S
O81        Zr101   2.384       .  S
O82        Zr102   2.379       .  S
O82         H109   0.966       .  S
O83         Zr95   2.447       .  S
O83          C85   1.290       .  A
O84        Zr102   2.366       .  S
O84          C85   1.276       .  A
C85         C149   1.458       .  S
O86         Zr98   2.436       .  S
O86          C88   1.287       .  A
O87        Zr101   2.409       .  S
O87          C88   1.285       .  A
C88         C139   1.463       .  S
O89         Zr98   2.462       .  S
O89          C91   1.292       .  A
O90        Zr102   2.462       .  S
O90          C91   1.293       .  A
C91         C126   1.505       .  S
O92         Zr95   2.437       .  S
O92          C94   1.287       .  A
O93        Zr101   2.502       .  S
O93          C94   1.302       .  A
C94         C156   1.509       .  S
Zr95         O96   2.436       .  S
Zr95         O97   2.434       .  S
Zr95        O103   2.367       .  S
Zr95        O104   2.371       .  S
Zr95        O107   2.381       .  S
Zr95        O105   2.377       .  S
O96         H116   0.990       .  S
O96         H121   0.990       .  S
O97         H117   0.989       .  S
Zr98         O99   2.435       .  S
Zr98        O100   2.436       .  S
Zr98        O104   2.377       .  S
Zr98        O103   2.364       .  S
Zr98        O108   2.369       .  S
Zr98        O106   2.382       .  S
O99         H115   0.990       .  S
O100        H114   0.990       .  S
O100        H124   0.990       .  S
Zr101       O104   2.389       .  S
Zr101       O106   2.402       .  S
Zr101       O107   2.396       .  S
Zr102       O103   2.385       .  S
Zr102       O105   2.389       .  S
Zr102       O108   2.380       .  S
O103        H111   0.966       .  S
O106        H110   0.966       .  S
O107        H112   0.966       .  S
C125        C126   1.408       .  A
C125        C130   1.403       .  A
C125        F132   1.358       .  S
C126        C127   1.413       .  A
C127        C128   1.416       .  A
C127        F134   1.358       .  S
C128        C129   1.414       .  A
C128        F133   1.356       .  S
C129        C130   1.411       .  A
C130        F131   1.358       .  S
C135        C140   1.393       .  A
C135        C340   1.404       .  A
C135        F142   1.357       .  S
C136        C137   1.403       .  A
C136        C339   1.405       .  A
C137        C342   1.394   1_554  A
C137        F144   1.357   1_545  S
C138        C139   1.405       .  A
C138        C341   1.396       .  A
C138        F143   1.358       .  S
C139        C140   1.403       .  A
C140        F141   1.358       .  S
C145        C146   1.405       .  A
C145        C150   1.391       .  A
C145        F152   1.359       .  S
C146        C147   1.394       .  A
C147        C148   1.388       .  A
C147        F154   1.357       .  S
C148        C149   1.410       .  A
C148        F153   1.358       .  S
C149        C150   1.402       .  A
C150        F151   1.359       .  S
C155        C156   1.415       .  A
C155        C160   1.412       .  A
C155        F162   1.358       .  S
C156        C157   1.407       .  A
C157        C158   1.414       .  A
C157        F164   1.358       .  S
C158        C159   1.419       .  A
C158        F163   1.356       .  S
C159        N219   1.464       .  S
C159        C160   1.411       .  A
C160        F161   1.357       .  S
C165        C166   1.404       .  A
C165        C170   1.389       .  A
C165        F172   1.358       .  S
C166        C167   1.415       .  A
C167        C168   1.399       .  A
C167        F174   1.359       .  S
C168        C169   1.401       .  A
C168        F173   1.358       .  S
C169        C170   1.404       .  A
C170        F171   1.358       .  S
C175        C176   1.416       .  A
C175        C180   1.419       .  A
C175        F386   1.357       .  S
C176        N212   1.464       .  S
C176        C177   1.411       .  A
C177        C178   1.405       .  A
C177        F184   1.354       .  S
C178        C179   1.414       .  A
C178        F183   1.358       .  S
C179        C180   1.411       .  A
C180        F181   1.357       .  S
F182        C379   1.357   1_554  S
C185        C186   1.411       .  A
C185        C190   1.409       .  A
C185        F192   1.351       .  S
C186        C187   1.413       .  A
C187        C188   1.404       .  A
C187        F194   1.357       .  S
C188        C189   1.403       .  A
C188        F193   1.358       .  S
C189        C190   1.407       .  A
C190        F191   1.358       .  S
C195        C196   1.409       .  A
C195        C200   1.402       .  A
C195        F202   1.357       .  S
C196        C197   1.409       .  A
C197        C198   1.392       .  A
C197        F204   1.358       .  S
C198        C199   1.400       .  A
C198        F203   1.359       .  S
C199        C200   1.403       .  A
C200        F201   1.358       .  S
N205        C209   1.373       .  A
N205        C390   1.463       .  S
C206        C207   1.381       .  A
C206        C400   1.482       .  S
C207        C208   1.359       .  A
C207        H210   1.082       .  S
C208        H211   1.083       .  S
N212        C216   1.377       .  A
N212        C213   1.363       .  A
C213        C214   1.375       .  A
C213        C373   1.472       .  S
C214        C215   1.358       .  A
C214        H217   1.083       .  S
C215        C216   1.386       .  A
C215        H218   1.083   1_455  S
C216        C247   1.510       .  S
N219        C223   1.380       .  A
N219        C220   1.356       .  A
C220        C221   1.366       .  A
C220        C350   1.453       .  S
C221        C222   1.351       .  A
C221        H224   1.083       .  S
C222        C223   1.397       .  A
C222        H225   1.080       .  S
N226       C1047   1.360   1_554  A
N226        C230   1.357   1_554  A
N226        H258   1.043       .  S
N227        C234   1.348       .  A
N227        C235   1.356       .  A
N228       C1049   1.352   1_565  A
N228        C232   1.358   1_565  A
N228        H667   1.045       .  S
N229        C236   1.356       .  A
N229        C237   1.354       .  A
C230        C238   1.389       .  A
C230        C246   1.424   1_556  A
C231       N1042   1.361   1_556  A
C231       C1055   1.385       .  A
C232        C240   1.389       .  A
C233       N1044   1.352   1_445  A
C233        C656   1.411   1_545  A
C233        C241   1.382       .  A
C234        C246   1.416       .  A
C234        C242   1.387       .  A
C235        C657   1.419       .  A
C235        C243   1.385       .  A
C236        C244   1.388       .  A
C236        C247   1.422       .  A
C237        C245   1.385       .  A
C237        C248   1.417       .  A
C238        C239   1.375       .  A
C238        H250   1.082       .  S
C239       C1047   1.384       .  A
C239       H1067   1.080       .  S
C240       C1057   1.382       .  A
C240        H252   1.082       .  S
C241       C1056   1.383       .  A
C241        H253   1.078       .  S
C242        C243   1.380       .  A
C242        H254   1.083       .  S
C243        H663   1.075       .  S
C244        C245   1.382       .  A
C244        H256   1.080       .  S
C245        H257   1.082       .  S
C248        C641   1.406       .  A
C248        C672   1.504       .  S
C249        C643   1.417   1_545  A
H251       C1055   1.081       .  S
H255        C651   1.076   1_545  S
H259        N636   1.044       .  S
N260        C264   1.369   1_545  A
N260        C261   1.368       .  A
N260        C340   1.431       .  S
C261        C262   1.385   1_545  A
C261        C333   1.515       .  S
C262        C671   1.380       .  A
C262        H265   1.082       .  S
C263        C670   1.380       .  A
C263        C672   1.384       .  A
C263        H266   1.082       .  S
C264        C671   1.383       .  A
C264        C656   1.516       .  S
O267       Zr279   2.462       .  S
O267        C269   1.292       .  A
O268       Zr305   2.404       .  S
O268        C269   1.282       .  A
C269        C403   1.469       .  S
O270       Zr282   2.461       .  S
O270        C272   1.292       .  A
O271       Zr306   2.387       .  S
O271        C272   1.279       .  A
C272        C370   1.482       .  S
O273       Zr282   2.422       .  S
O273        C275   1.285       .  A
O274       Zr305   2.498       .  S
O274        C275   1.301       .  A
C275        C383   1.505       .  S
O276       Zr279   2.470       .  S
O276        C278   1.292       .  A
O277       Zr306   2.465       .  S
O277        C278   1.293       .  A
C278        C393   1.500       .  S
Zr279       O280   2.436       .  S
Zr279       O281   2.436       .  S
Zr279       O285   2.371       .  S
Zr279       O286   2.381       .  S
Zr279       O309   2.372       .  S
Zr279       O311   2.378       .  S
O280        H323   0.990       .  S
O281        H322   0.990       .  S
O281        H326   0.990       .  S
Zr282       O283   2.435       .  S
Zr282       O284   2.437       .  S
Zr282       O286   2.364       .  S
Zr282       O285   2.379       .  S
Zr282       O310   2.378       .  S
Zr282       O312   2.359       .  S
O283        H324   0.990       .  S
O283        H327   0.990       .  S
O284        H317   0.990       .  S
O285       Zr305   2.395       .  S
O286       Zr306   2.383       .  S
O286        H313   0.966       .  S
O287       Zr299   2.453       .  S
O287        C289   1.291       .  A
O288       Zr306   2.372       .  S
O288        C289   1.277       .  A
C289        C353   1.464       .  S
O290       Zr302   2.438       .  S
O290        C292   1.287       .  A
O291       Zr305   2.421       .  S
O291        C292   1.286       .  A
C292        C343   1.467       .  S
O293       Zr302   2.456       .  S
O293        C295   1.291       .  A
O294       Zr306   2.470       .  S
O294        C295   1.294       .  A
C295        C330   1.503       .  S
O296       Zr299   2.450       .  S
O296        C298   1.290       .  A
O297       Zr305   2.506       .  S
O297        C298   1.303       .  A
C298        C360   1.520       .  S
Zr299       O300   2.435       .  S
Zr299       O301   2.435       .  S
Zr299       O307   2.372       .  S
Zr299       O308   2.375       .  S
Zr299       O311   2.380       .  S
Zr299       O309   2.376       .  S
O300        H320   0.990       .  S
O300        H325   0.990       .  S
O301        H321   0.990       .  S
Zr302       O303   2.436       .  S
Zr302       O304   2.436       .  S
Zr302       O308   2.378       .  S
Zr302       O307   2.369       .  S
Zr302       O312   2.369       .  S
Zr302       O310   2.375       .  S
O303        H319   0.990       .  S
O304        H318   0.990       .  S
O304        H328   0.990       .  S
Zr305       O308   2.388       .  S
Zr305       O310   2.396       .  S
Zr305       O311   2.398       .  S
Zr306       O307   2.389       .  S
Zr306       O309   2.387       .  S
Zr306       O312   2.375       .  S
O307        H315   0.966       .  S
O310        H314   0.965       .  S
O311        H316   0.966       .  S
C329        C330   1.408       .  A
C329        C334   1.405       .  A
C329        F336   1.358       .  S
C330        C331   1.411       .  A
C331        C332   1.417       .  A
C331        F338   1.358       .  S
C332        C333   1.414       .  A
C332        F337   1.356       .  S
C333        C334   1.412       .  A
C334        F335   1.358       .  S
C339        C344   1.399   1_554  A
C339        F346   1.357       .  S
C340        C341   1.405       .  A
C341        F348   1.357   1_545  S
C342        C343   1.404       .  A
C342        F347   1.358       .  S
C343        C344   1.405       .  A
C344        F345   1.358       .  S
C349        C350   1.402       .  A
C349        C354   1.390       .  A
C349        F356   1.359       .  S
C350        C351   1.395       .  A
C351        C352   1.392       .  A
C351        F358   1.358       .  S
C352        C353   1.411       .  A
C352        F357   1.358       .  S
C353        C354   1.403       .  A
C354        F355   1.358       .  S
C359        C360   1.417       .  A
C359        C364   1.414       .  A
C359        F366   1.357       .  S
C360        C361   1.410       .  A
C361        C362   1.417       .  A
C361        F368   1.358       .  S
C362        C363   1.421       .  A
C362        F367   1.357   1_556  S
C363        C364   1.410       .  A
C364        F365   1.356       .  S
C369        C370   1.406       .  A
C369        C374   1.393       .  A
C369        F376   1.358       .  S
C370        C371   1.416       .  A
C371        C372   1.398       .  A
C371        F378   1.358       .  S
C372        C373   1.400       .  A
C372        F377   1.358       .  S
C373        C374   1.406       .  A
C374        F375   1.358       .  S
C379        C380   1.417       .  A
C379        C384   1.417       .  A
C380        C381   1.409       .  A
C381        C382   1.403       .  A
C381        F388   1.355       .  S
C382        C383   1.413       .  A
C382        F387   1.358       .  S
C383        C384   1.409       .  A
C384        F385   1.357       .  S
C389        C390   1.410       .  A
C389        C394   1.412       .  A
C389        F396   1.351       .  S
C390        C391   1.415       .  A
C391        C392   1.409       .  A
C391        F398   1.358       .  S
C392        C393   1.407       .  A
C392        F397   1.358       .  S
C393        C394   1.409       .  A
C394        F395   1.357       .  S
C399        C400   1.408       .  A
C399        C404   1.402       .  A
C399        F406   1.357       .  S
C400        C401   1.408       .  A
C401        C402   1.393       .  A
C401        F408   1.358       .  S
C402        C403   1.400       .  A
C402        F407   1.358       .  S
C403        C404   1.406       .  A
C404        F405   1.358       .  S
N409        C413   1.371       .  A
N409        C614   1.364       .  A
N409        C594   1.461   1_556  S
C410        N613   1.364       .  A
C410        C411   1.378       .  A
C410        C604   1.476       .  S
C411        C412   1.358       .  A
C411        H414   1.083       .  S
C412        C617   1.383       .  A
C412        H415   1.083       .  S
C413        C616   1.383       .  A
C413        C654   1.487   1_556  S
N416        C420   1.376       .  A
N416        C417   1.363       .  A
N416        C788   1.466   1_554  S
C417        C418   1.374       .  A
C417        C577   1.470       .  S
C418        C419   1.360   1_455  A
C418        H421   1.082       .  S
C419        C420   1.387   1_655  A
C419        H422   1.083       .  S
C420        C451   1.509       .  S
N423        C427   1.383       .  A
N423        C424   1.357       .  A
N423        C771   1.468   1_554  S
C424        C425   1.365       .  A
C424        C554   1.456       .  S
C425        C426   1.351       .  A
C425        H428   1.083       .  S
C426        C427   1.398       .  A
C426        H429   1.080       .  S
C427        C657   1.527       .  S
N430       C1251   1.360       .  A
N430        C434   1.357       .  A
N430        H462   1.043       .  S
N431        C438   1.347       .  A
N431        C439   1.354       .  A
N432       C1253   1.350       .  A
N432        C436   1.358       .  A
N433        C440   1.357       .  A
N433        C441   1.358       .  A
C434        C442   1.389       .  A
C434        C450   1.425       .  A
C435       N1246   1.360       .  A
C435        C655   1.425   1_655  A
C435       C1259   1.387       .  A
C436        C444   1.390   1_554  A
C436        C657   1.429       .  A
C437       N1248   1.352   1_455  A
C437        C445   1.383   1_554  A
C438        C450   1.416       .  A
C438        C446   1.388       .  A
C439        C447   1.385       .  A
C440        C448   1.388       .  A
C440        C451   1.425       .  A
C441        C449   1.383       .  A
C441        C452   1.422       .  A
C442        C443   1.374       .  A
C442        H454   1.082       .  S
C443       C1251   1.384       .  A
C443       H1271   1.080       .  S
C444       C1261   1.384       .  A
C444        H456   1.082       .  S
C445       C1260   1.385       .  A
C445        H457   1.079       .  S
C446        C447   1.384       .  A
C446        H458   1.083       .  S
C448        C449   1.379       .  A
C448        H460   1.077       .  S
C449        H461   1.082       .  S
C450        C617   1.487       .  S
C451        C639   1.424   1_454  A
C453        C640   1.428       .  A
C453        C631   1.522       .  S
H455       C1259   1.082       .  S
N464        C468   1.365       .  A
N464        C465   1.366       .  A
N464        C544   1.429       .  S
C465        C466   1.385       .  A
C465        C537   1.512       .  S
C466        H469   1.082       .  S
C467        H470   1.082       .  S
O471       Zr483   2.453       .  S
O471        C473   1.291       .  A
O472       Zr509   2.396       .  S
O472        C473   1.281       .  A
C473        C607   1.460       .  S
O474       Zr486   2.454       .  S
O474        C476   1.291       .  A
O475       Zr510   2.398       .  S
O475        C476   1.282       .  A
C476        C574   1.477       .  S
O477       Zr486   2.436       .  S
O477        C479   1.287       .  A
O478       Zr509   2.509       .  S
O478        C479   1.303       .  A
C479        C587   1.511       .  S
O480       Zr483   2.456       .  S
O480        C482   1.290       .  A
O481       Zr510   2.467       .  S
O481        C482   1.295       .  A
C482        C597   1.495       .  S
Zr483       O484   2.434       .  S
Zr483       O485   2.436       .  S
Zr483       O489   2.372       .  S
Zr483       O490   2.380       .  S
Zr483       O513   2.370       .  S
Zr483       O515   2.373       .  S
O484        H527   0.990       .  S
O485        H526   0.990       .  S
O485        H530   0.990       .  S
Zr486       O487   2.436       .  S
Zr486       O488   2.434       .  S
Zr486       O490   2.369       .  S
Zr486       O489   2.377       .  S
Zr486       O514   2.379       .  S
Zr486       O516   2.366       .  S
O487        H528   0.990       .  S
O487        H531   0.990       .  S
O488        H521   0.990       .  S
O489       Zr509   2.391       .  S
O490       Zr510   2.382       .  S
O490        H517   0.966       .  S
O491       Zr503   2.457       .  S
O491        C493   1.292       .  A
O492       Zr510   2.374       .  S
O492        C493   1.278       .  A
C493        C557   1.462       .  S
O494       Zr506   2.438       .  S
O494        C496   1.288       .  A
O495       Zr509   2.414       .  S
O495        C496   1.285       .  A
C496        C547   1.465       .  S
O497       Zr506   2.459       .  S
O497        C499   1.292       .  A
O498       Zr510   2.468       .  S
O498        C499   1.294       .  A
C499        C534   1.504       .  S
O500       Zr503   2.453       .  S
O500        C502   1.290       .  A
O501       Zr509   2.509       .  S
O501        C502   1.303       .  A
C502        C564   1.519       .  S
Zr503       O504   2.435       .  S
Zr503       O505   2.434       .  S
Zr503       O511   2.368       .  S
Zr503       O512   2.372       .  S
Zr503       O515   2.379       .  S
Zr503       O513   2.376       .  S
O504        H524   0.990       .  S
O504        H529   0.990       .  S
O505        H525   0.990       .  S
Zr506       O507   2.434       .  S
Zr506       O508   2.435       .  S
Zr506       O512   2.373       .  S
Zr506       O511   2.361       .  S
Zr506       O516   2.373       .  S
Zr506       O514   2.379       .  S
O507        H523   0.990       .  S
O508        H522   0.990       .  S
O508        H532   0.990       .  S
Zr509       O512   2.385       .  S
Zr509       O514   2.396       .  S
Zr509       O515   2.396       .  S
Zr510       O511   2.385       .  S
Zr510       O513   2.388       .  S
Zr510       O516   2.378       .  S
O511        H519   0.966       .  S
O514        H518   0.966       .  S
O515        H520   0.966       .  S
C533        C534   1.408       .  A
C533        C538   1.404       .  A
C533        F540   1.358       .  S
C534        C535   1.413       .  A
C535        C536   1.416       .  A
C535        F542   1.358       .  S
C536        C537   1.414       .  A
C536        F541   1.356       .  S
C537        C538   1.411       .  A
C538        F539   1.358       .  S
C543        C748   1.404       .  A
C543        C548   1.396       .  A
C543        F550   1.357       .  S
C544        C747   1.401       .  A
C544        C545   1.404       .  A
C545        C750   1.396   1_554  A
C545        F552   1.358       .  S
C546        C749   1.396       .  A
C546        C547   1.404       .  A
C546        F551   1.358       .  S
C547        C548   1.404       .  A
C548        F549   1.358       .  S
C553        C554   1.404       .  A
C553        C558   1.393       .  A
C553        F560   1.358       .  S
C554        C555   1.396       .  A
C555        C556   1.392       .  A
C555        F562   1.358       .  S
C556        C557   1.409       .  A
C556        F561   1.358       .  S
C557        C558   1.403       .  A
C558        F559   1.358       .  S
C563        C564   1.417       .  A
C563        C568   1.417       .  A
C563        F570   1.358       .  S
C564        C565   1.409       .  A
C565        C566   1.416       .  A
C565        F572   1.357       .  S
C566        C567   1.418       .  A
C566        F571   1.356       .  S
C567        N627   1.468       .  S
C567        C568   1.412       .  A
C568        F569   1.357       .  S
C573        C574   1.405       .  A
C573        C578   1.395       .  A
C573        F580   1.358       .  S
C574        C575   1.412       .  A
C575        C576   1.399       .  A
C575        F582   1.358       .  S
C576        C577   1.399       .  A
C576        F581   1.358       .  S
C577        C578   1.406       .  A
C578        F579   1.357       .  S
C583        C584   1.415       .  A
C583        C588   1.420       .  A
C583        F794   1.357       .  S
C584        N620   1.462       .  S
C584        C585   1.411       .  A
C585        C586   1.407       .  A
C585        F592   1.357       .  S
C586        C587   1.412       .  A
C586        F591   1.358       .  S
C587        C588   1.412       .  A
C588        F589   1.357       .  S
F590        C787   1.356   1_554  S
C593        C594   1.412       .  A
C593        C598   1.413       .  A
C593        F600   1.351       .  S
C594        C595   1.413       .  A
C595        C596   1.404       .  A
C595        F602   1.357       .  S
C596        C597   1.404       .  A
C596        F601   1.358       .  S
C597        C598   1.410       .  A
C598        F599   1.358       .  S
C603        C604   1.408       .  A
C603        C608   1.402       .  A
C603        F610   1.358       .  S
C604        C605   1.405       .  A
C605        C606   1.388       .  A
C605        F612   1.358       .  S
C606        C607   1.398       .  A
C606        F611   1.358       .  S
C607        C608   1.405       .  A
C608        F609   1.358       .  S
N613        C617   1.374       .  A
N613        C798   1.464       .  S
C614        C615   1.379       .  A
C614        C808   1.479       .  S
C615        C616   1.360       .  A
C615        H618   1.082       .  S
C616        H619   1.083       .  S
N620        C624   1.376       .  A
N620        C621   1.361       .  A
C621        C622   1.375       .  A
C621        C781   1.470       .  S
C622        C623   1.358       .  A
C622        H625   1.083       .  S
C623        C624   1.387       .  A
C623        H626   1.083   1_455  S
C624        C655   1.509       .  S
N627        C631   1.382       .  A
N627        C628   1.360       .  A
C628        C629   1.367       .  A
C628        C758   1.458       .  S
C629        C630   1.349       .  A
C629        H632   1.083       .  S
C630        C631   1.396       .  A
C630        H633   1.081       .  S
N634       C1455   1.360   1_554  A
N634        C638   1.357   1_554  A
N634        H666   1.043       .  S
N635        C642   1.347       .  A
N635        C643   1.355       .  A
N636       C1457   1.351       .  A
N636        C640   1.357       .  A
N637        C644   1.358       .  A
N637        C645   1.359       .  A
C638        C646   1.387       .  A
C638        C654   1.423   1_556  A
C639       N1450   1.360   1_556  A
C639       C1463   1.386       .  A
C640        C648   1.390       .  A
C641       N1452   1.349   1_455  A
C641        C649   1.383       .  A
C642        C654   1.415       .  A
C642        C650   1.386       .  A
C643        C651   1.386       .  A
C644        C652   1.388       .  A
C644        C655   1.428       .  A
C645        C653   1.383       .  A
C645        C656   1.422       .  A
C646        C647   1.376       .  A
C646        H658   1.082       .  S
C647       C1455   1.385       .  A
C647       H1475   1.078       .  S
C648       C1465   1.384       .  A
C648        H660   1.082       .  S
C649       C1464   1.383       .  A
C649        H661   1.079       .  S
C650        C651   1.381       .  A
C650        H662   1.082       .  S
C652        C653   1.381       .  A
C652        H664   1.077       .  S
C653        H665   1.082       .  S
H659       C1463   1.078       .  S
N668        C672   1.363       .  A
N668        C669   1.364       .  A
N668        C748   1.434       .  S
C669        C670   1.384       .  A
C669        C741   1.503       .  S
C670        H673   1.082       .  S
C671        H674   1.082       .  S
O675       Zr687   2.463       .  S
O675        C677   1.292       .  A
O676       Zr713   2.404       .  S
O676        C677   1.282       .  A
C677        C811   1.468       .  S
O678       Zr690   2.458       .  S
O678        C680   1.292       .  A
O679       Zr714   2.393       .  S
O679        C680   1.280       .  A
C680        C778   1.480       .  S
O681       Zr690   2.427       .  S
O681        C683   1.285       .  A
O682       Zr713   2.503       .  S
O682        C683   1.302       .  A
C683        C791   1.513       .  S
O684       Zr687   2.461       .  S
O684        C686   1.292       .  A
O685       Zr714   2.447       .  S
O685        C686   1.291       .  A
C686        C801   1.492       .  S
Zr687       O688   2.437       .  S
Zr687       O689   2.435       .  S
Zr687       O693   2.367       .  S
Zr687       O694   2.381       .  S
Zr687       O717   2.377       .  S
Zr687       O719   2.372       .  S
O688        H731   0.990       .  S
O689        H730   0.990       .  S
O689        H734   0.990       .  S
Zr690       O691   2.435       .  S
Zr690       O692   2.435       .  S
Zr690       O694   2.359       .  S
Zr690       O693   2.372       .  S
Zr690       O718   2.382       .  S
Zr690       O720   2.361       .  S
O691        H732   0.990       .  S
O691        H735   0.990       .  S
O692        H725   0.990       .  S
O693       Zr713   2.392       .  S
O694       Zr714   2.387       .  S
O694        H721   0.966       .  S
O695       Zr707   2.452       .  S
O695        C697   1.290       .  A
O696       Zr714   2.383       .  S
O696        C697   1.279       .  A
C697        C761   1.467       .  S
O698       Zr710   2.431       .  S
O698        C700   1.286       .  A
O699       Zr713   2.415       .  S
O699        C700   1.285       .  A
C700        C751   1.460       .  S
O701       Zr710   2.461       .  S
O701        C703   1.291       .  A
O702       Zr714   2.457       .  S
O702        C703   1.292       .  A
C703        C738   1.497       .  S
O704       Zr707   2.435       .  S
O704        C706   1.286       .  A
O705       Zr713   2.515       .  S
O705        C706   1.304       .  A
C706        C768   1.514       .  S
Zr707       O708   2.435       .  S
Zr707       O709   2.436       .  S
Zr707       O715   2.370       .  S
Zr707       O716   2.373       .  S
Zr707       O719   2.384       .  S
Zr707       O717   2.378       .  S
O708        H728   0.990       .  S
O708        H733   0.990       .  S
O709        H729   0.990       .  S
Zr710       O711   2.435       .  S
Zr710       O712   2.438       .  S
Zr710       O716   2.378       .  S
Zr710       O715   2.363       .  S
Zr710       O720   2.364       .  S
Zr710       O718   2.380       .  S
O711        H727   0.990       .  S
O712        H726   0.990       .  S
O712        H736   0.990       .  S
Zr713       O716   2.385       .  S
Zr713       O718   2.402       .  S
Zr713       O719   2.394       .  S
Zr714       O715   2.377       .  S
Zr714       O717   2.388       .  S
Zr714       O720   2.376       .  S
O715        H723   0.966       .  S
O718        H722   0.966       .  S
O719        H724   0.966       .  S
C737        C738   1.408       .  A
C737        C742   1.406       .  A
C737        F744   1.358       .  S
C738        C739   1.410       .  A
C739        C740   1.411       .  A
C739        F746   1.357       .  S
C740        C741   1.409       .  A
C740        F745   1.357       .  S
C741        C742   1.410       .  A
C742        F743   1.358       .  S
C747        C752   1.394   1_554  A
C747        F754   1.356       .  S
C748        C749   1.406       .  A
C749        F756   1.357       .  S
C750        C751   1.404       .  A
C750        F755   1.359       .  S
C751        C752   1.402       .  A
C752        F753   1.358       .  S
C757        C758   1.405       .  A
C757        C762   1.395       .  A
C757        F764   1.359       .  S
C758        C759   1.395       .  A
C759        C760   1.391       .  A
C759        F766   1.357       .  S
C760        C761   1.411       .  A
C760        F765   1.358       .  S
C761        C762   1.405       .  A
C762        F763   1.358       .  S
C767        C768   1.415       .  A
C767        C772   1.412       .  A
C767        F774   1.358       .  S
C768        C769   1.408       .  A
C769        C770   1.417       .  A
C769        F776   1.358       .  S
C770        C771   1.421       .  A
C770        F775   1.357   1_556  S
C771        C772   1.411       .  A
C772        F773   1.357       .  S
C777        C778   1.405       .  A
C777        C782   1.391       .  A
C777        F784   1.358       .  S
C778        C779   1.415       .  A
C779        C780   1.401       .  A
C779        F786   1.358       .  S
C780        C781   1.400       .  A
C780        F785   1.358       .  S
C781        C782   1.405       .  A
C782        F783   1.358       .  S
C787        C788   1.418       .  A
C787        C792   1.418       .  A
C788        C789   1.409       .  A
C789        C790   1.403       .  A
C789        F796   1.353       .  S
C790        C791   1.416       .  A
C790        F795   1.358       .  S
C791        C792   1.411       .  A
C792        F793   1.357       .  S
C797        C798   1.412       .  A
C797        C802   1.407       .  A
C797        F804   1.349       .  S
C798        C799   1.418       .  A
C799        C800   1.405       .  A
C799        F806   1.357       .  S
C800        C801   1.405       .  A
C800        F805   1.359       .  S
C801        C802   1.407       .  A
C802        F803   1.357       .  S
C807        C808   1.406       .  A
C807        C812   1.401       .  A
C807        F814   1.357       .  S
C808        C809   1.407       .  A
C809        C810   1.395       .  A
C809        F816   1.358       .  S
C810        C811   1.401       .  A
C810        F815   1.358       .  S
C811        C812   1.405       .  A
C812        F813   1.358       .  S
N817        C821   1.376       .  A
N817       C1022   1.369       .  A
N817       C1002   1.466   1_556  S
C818       N1021   1.368       .  A
C818        C819   1.381       .  A
C818       C1012   1.490       .  S
C819        C820   1.358       .  A
C819        H822   1.082       .  S
C820       C1025   1.381       .  A
C820        H823   1.083       .  S
C821       C1024   1.382       .  A
C821       C1062   1.491   1_556  S
N824        C828   1.373       .  A
N824        C825   1.361       .  A
N824       C1196   1.459   1_554  S
C825        C826   1.375       .  A
C825        C985   1.468       .  S
C826        C827   1.360       .  A
C826        H829   1.083       .  S
C827        C828   1.386       .  A
C827        H830   1.083       .  S
C828        C859   1.506       .  S
N831        C835   1.381       .  A
N831        C832   1.360       .  A
N831       C1179   1.466   1_554  S
C832        C833   1.369       .  A
C832        C962   1.460       .  S
C833        C834   1.351       .  A
C833        H836   1.083       .  S
C834        C835   1.395       .  A
C834        H837   1.081       .  S
C835       C1065   1.519       .  S
N838        C842   1.358       .  A
N838        H870   1.043       .  S
N839        C846   1.349       .  A
N839        C847   1.359       .  A
N840        C844   1.357   1_564  A
N840       H1279   1.044       .  S
N841        C848   1.357       .  A
N841        C849   1.356       .  A
C842        C850   1.389       .  A
C842        C858   1.427       .  A
C843       C1063   1.424       .  A
C844        C852   1.389   1_655  A
C844       C1065   1.428   1_556  A
C845       C1268   1.412   1_545  A
C845        C853   1.383   1_554  A
C846        C858   1.422       .  A
C846        C854   1.389       .  A
C847       C1269   1.423       .  A
C847        C855   1.384       .  A
C848        C856   1.387       .  A
C848        C859   1.424       .  A
C849        C857   1.384       .  A
C849        C860   1.418       .  A
C850        C851   1.374       .  A
C850        H862   1.082       .  S
C852        H864   1.082       .  S
C853        H865   1.076       .  S
C854        C855   1.386       .  A
C854        H866   1.082       .  S
C855       H1275   1.077       .  S
C856        C857   1.381       .  A
C856        H868   1.078       .  S
C857        H869   1.082       .  S
C858       C1025   1.491       .  S
C859       C1047   1.419   1_554  A
C860       C1253   1.408       .  A
C860       C1284   1.507       .  S
C861       C1048   1.428       .  A
C861       C1255   1.419   1_545  A
C861       C1039   1.519       .  S
H867       C1263   1.077   1_545  S
H871       N1248   1.044       .  S
N872        C876   1.366   1_545  A
N872        C873   1.366       .  A
N872        C952   1.430       .  S
C873        C874   1.384   1_545  A
C873        C945   1.510       .  S
C874       C1283   1.380       .  A
C874        H877   1.082       .  S
C875       C1282   1.379       .  A
C875       C1284   1.383       .  A
C875        H878   1.082       .  S
C876       C1283   1.384       .  A
C876       C1268   1.514       .  S
O879       Zr891   2.468       .  S
O879        C881   1.294       .  A
O880       Zr917   2.406       .  S
O880        C881   1.282       .  A
C881       C1015   1.474       .  S
O882       Zr894   2.457       .  S
O882        C884   1.292       .  A
O883       Zr918   2.392       .  S
O883        C884   1.280       .  A
C884        C982   1.476       .  S
O885       Zr894   2.428       .  S
O885        C887   1.286       .  A
O886       Zr917   2.508       .  S
O886        C887   1.302       .  A
C887        C995   1.509       .  S
O888       Zr891   2.465       .  S
O888        C890   1.292       .  A
O889       Zr918   2.458       .  S
O889        C890   1.293       .  A
C890       C1005   1.497       .  S
Zr891       O892   2.436       .  S
Zr891       O893   2.436       .  S
Zr891       O897   2.367       .  S
Zr891       O898   2.381       .  S
Zr891       O921   2.378       .  S
Zr891       O923   2.376       .  S
O892        H935   0.990       .  S
O893        H934   0.990       .  S
O893        H938   0.990       .  S
Zr894       O895   2.437       .  S
Zr894       O896   2.434       .  S
Zr894       O898   2.361       .  S
Zr894       O897   2.372       .  S
Zr894       O922   2.385       .  S
Zr894       O924   2.367       .  S
O895        H936   0.990       .  S
O895        H939   0.990       .  S
O896        H929   0.990       .  S
O897       Zr917   2.389       .  S
O898       Zr918   2.384       .  S
O898        H925   0.966       .  S
O899       Zr911   2.464       .  S
O899        C901   1.293       .  A
O900       Zr918   2.377       .  S
O900        C901   1.278       .  A
C901        C965   1.472       .  S
O902       Zr914   2.438       .  S
O902        C904   1.287       .  A
O903       Zr917   2.420       .  S
O903        C904   1.286       .  A
C904        C955   1.465       .  S
O905       Zr914   2.464       .  S
O905        C907   1.292       .  A
O906       Zr918   2.466       .  S
O906        C907   1.293       .  A
C907        C942   1.504       .  S
O908       Zr911   2.452       .  S
O908        C910   1.290       .  A
O909       Zr917   2.510       .  S
O909        C910   1.303       .  A
C910        C972   1.519       .  S
Zr911       O912   2.435       .  S
Zr911       O913   2.434       .  S
Zr911       O919   2.372       .  S
Zr911       O920   2.379       .  S
Zr911       O923   2.383       .  S
Zr911       O921   2.370       .  S
O912        H932   0.990       .  S
O912        H937   0.990       .  S
O913        H933   0.990       .  S
Zr914       O915   2.434       .  S
Zr914       O916   2.437       .  S
Zr914       O920   2.379       .  S
Zr914       O919   2.368       .  S
Zr914       O924   2.368       .  S
Zr914       O922   2.380       .  S
O915        H931   0.990       .  S
O916        H930   0.990       .  S
O916        H940   0.990       .  S
Zr917       O920   2.391       .  S
Zr917       O922   2.401       .  S
Zr917       O923   2.399       .  S
Zr918       O919   2.386       .  S
Zr918       O921   2.388       .  S
Zr918       O924   2.376       .  S
O919        H927   0.966       .  S
O922        H926   0.966       .  S
O923        H928   0.966       .  S
C941        C942   1.408       .  A
C941        C946   1.406       .  A
C941        F948   1.358       .  S
C942        C943   1.412       .  A
C943        C944   1.415       .  A
C943        F950   1.357       .  S
C944        C945   1.412       .  A
C944        F949   1.357       .  S
C945        C946   1.411       .  A
C946        F947   1.358       .  S
C951       C1156   1.404       .  A
C951        C956   1.397       .  A
C951        F958   1.357       .  S
C952       C1155   1.404       .  A
C952        C953   1.404       .  A
C953       C1158   1.394   1_554  A
C953        F960   1.357   1_545  S
C954       C1157   1.396       .  A
C954        C955   1.405       .  A
C954        F959   1.358       .  S
C955        C956   1.404       .  A
C956        F957   1.358       .  S
C961        C962   1.404       .  A
C961        C966   1.391       .  A
C961        F968   1.359       .  S
C962        C963   1.396       .  A
C963        C964   1.395       .  A
C963        F970   1.358       .  S
C964        C965   1.414       .  A
C964        F969   1.358       .  S
C965        C966   1.404       .  A
C966        F967   1.358       .  S
C971        C972   1.416       .  A
C971        C976   1.414       .  A
C971        F978   1.357       .  S
C972        C973   1.411       .  A
C973        C974   1.418       .  A
C973        F980   1.357       .  S
C974        C975   1.419       .  A
C974        F979   1.357       .  S
C975       N1035   1.466       .  S
C975        C976   1.409       .  A
C976        F977   1.357       .  S
C981        C982   1.404       .  A
C981        C986   1.394       .  A
C981        F988   1.358       .  S
C982        C983   1.413       .  A
C983        C984   1.398       .  A
C983        F990   1.358       .  S
C984        C985   1.399       .  A
C984        F989   1.358       .  S
C985        C986   1.406       .  A
C986        F987   1.357       .  S
C991        C992   1.417       .  A
C991        C996   1.421       .  A
C991       F1202   1.357       .  S
C992       N1028   1.462       .  S
C992        C993   1.409       .  A
C993        C994   1.403       .  A
C993       F1000   1.355       .  S
C994        C995   1.412       .  A
C994        F999   1.358       .  S
C995        C996   1.412       .  A
C996        F997   1.357       .  S
F998       C1195   1.357   1_554  S
C1001      C1002   1.414       .  A
C1001      C1006   1.413       .  A
C1001      F1008   1.350       .  S
C1002      C1003   1.417       .  A
C1003      C1004   1.404       .  A
C1003      F1010   1.357       .  S
C1004      C1005   1.404       .  A
C1004      F1009   1.358       .  S
C1005      C1006   1.409       .  A
C1006      F1007   1.358       .  S
C1011      C1012   1.410       .  A
C1011      C1016   1.406       .  A
C1011      F1018   1.357       .  S
C1012      C1013   1.409       .  A
C1013      C1014   1.393       .  A
C1013      F1020   1.358       .  S
C1014      C1015   1.400       .  A
C1014      F1019   1.358       .  S
C1015      C1016   1.407       .  A
C1016      F1017   1.358       .  S
N1021      C1025   1.376       .  A
N1021      C1206   1.461       .  S
C1022      C1023   1.380       .  A
C1022      C1216   1.488       .  S
C1023      C1024   1.357       .  A
C1023      H1026   1.082       .  S
C1024      H1027   1.083       .  S
N1028      C1032   1.378       .  A
N1028      C1029   1.363       .  A
C1029      C1030   1.375       .  A
C1029      C1189   1.472       .  S
C1030      C1031   1.359       .  A
C1030      H1033   1.083       .  S
C1031      C1032   1.386       .  A
C1031      H1034   1.083       .  S
C1032      C1063   1.509       .  S
N1035      C1039   1.381       .  A
N1035      C1036   1.361       .  A
C1036      C1037   1.369       .  A
C1036      C1166   1.457       .  S
C1037      C1038   1.348       .  A
C1037      H1040   1.083       .  S
C1038      C1039   1.395       .  A
C1038      H1041   1.081       .  S
N1042      C1046   1.358   1_554  A
N1042      H1074   1.043       .  S
N1043      C1050   1.349       .  A
N1043      C1051   1.358       .  A
N1044      C1048   1.356   1_565  A
N1044      H1483   1.044       .  S
N1045      C1052   1.358       .  A
N1045      C1053   1.357       .  A
C1046      C1054   1.389       .  A
C1046      C1062   1.427   1_556  A
C1048      C1056   1.390   1_655  A
C1049      C1472   1.410   1_545  A
C1049      C1057   1.382       .  A
C1050      C1062   1.419       .  A
C1050      C1058   1.388       .  A
C1051      C1473   1.419       .  A
C1051      C1059   1.384       .  A
C1052      C1060   1.388       .  A
C1052      C1063   1.425       .  A
C1053      C1061   1.384       .  A
C1053      C1064   1.420       .  A
C1054      C1055   1.377       .  A
C1054      H1066   1.082       .  S
C1056      H1068   1.083       .  S
C1057      H1069   1.078       .  S
C1058      C1059   1.383       .  A
C1058      H1070   1.082       .  S
C1059      H1479   1.078       .  S
C1060      C1061   1.381       .  A
C1060      H1072   1.080       .  S
C1061      H1073   1.082       .  S
C1064      C1457   1.410       .  A
C1064      C1488   1.512       .  S
C1065      C1459   1.419   1_545  A
H1071      C1467   1.076   1_545  S
H1075      N1452   1.045       .  S
N1076      C1080   1.368   1_545  A
N1076      C1077   1.367       .  A
N1076      C1156   1.432       .  S
C1077      C1078   1.384   1_545  A
C1077      C1149   1.513       .  S
C1078      C1487   1.380       .  A
C1078      H1081   1.082       .  S
C1079      C1486   1.381       .  A
C1079      C1488   1.384       .  A
C1079      H1082   1.082       .  S
C1080      C1487   1.384       .  A
C1080      C1472   1.515       .  S
O1083     Zr1095   2.460       .  S
O1083      C1085   1.292       .  A
O1084     Zr1121   2.407       .  S
O1084      C1085   1.283       .  A
C1085      C1219   1.472       .  S
O1086     Zr1098   2.449       .  S
O1086      C1088   1.290       .  A
O1087     Zr1122   2.402       .  S
O1087      C1088   1.282       .  A
C1088      C1186   1.480       .  S
O1089     Zr1098   2.429       .  S
O1089      C1091   1.286       .  A
O1090     Zr1121   2.497       .  S
O1090      C1091   1.300       .  A
C1091      C1199   1.505       .  S
O1092     Zr1095   2.452       .  S
O1092      C1094   1.289       .  A
O1093     Zr1122   2.467       .  S
O1093      C1094   1.295       .  A
C1094      C1209   1.495       .  S
Zr1095     O1096   2.433       .  S
Zr1095     O1097   2.436       .  S
Zr1095     O1101   2.363       .  S
Zr1095     O1102   2.384       .  S
Zr1095     O1125   2.374       .  S
Zr1095     O1127   2.374       .  S
O1096      H1139   0.990       .  S
O1097      H1138   0.990       .  S
O1097      H1142   0.990       .  S
Zr1098     O1099   2.436       .  S
Zr1098     O1100   2.436       .  S
Zr1098     O1102   2.366       .  S
Zr1098     O1101   2.371       .  S
Zr1098     O1126   2.380       .  S
Zr1098     O1128   2.360       .  S
O1099      H1140   0.990       .  S
O1099      H1143   0.990       .  S
O1100      H1133   0.990       .  S
O1101     Zr1121   2.384       .  S
O1102     Zr1122   2.384       .  S
O1102      H1129   0.966       .  S
O1103     Zr1115   2.450       .  S
O1103      C1105   1.291       .  A
O1104     Zr1122   2.374       .  S
O1104      C1105   1.277       .  A
C1105      C1169   1.465       .  S
O1106     Zr1118   2.439       .  S
O1106      C1108   1.288       .  A
O1107     Zr1121   2.410       .  S
O1107      C1108   1.284       .  A
C1108      C1159   1.462       .  S
O1109     Zr1118   2.457       .  S
O1109      C1111   1.291       .  A
O1110     Zr1122   2.473       .  S
O1110      C1111   1.295       .  A
C1111      C1146   1.505       .  S
O1112     Zr1115   2.447       .  S
O1112      C1114   1.289       .  A
O1113     Zr1121   2.507       .  S
O1113      C1114   1.303       .  A
C1114      C1176   1.516       .  S
Zr1115     O1116   2.436       .  S
Zr1115     O1117   2.435       .  S
Zr1115     O1123   2.376       .  S
Zr1115     O1124   2.376       .  S
Zr1115     O1127   2.378       .  S
Zr1115     O1125   2.369       .  S
O1116      H1136   0.990       .  S
O1116      H1141   0.990       .  S
O1117      H1137   0.990       .  S
Zr1118     O1119   2.434       .  S
Zr1118     O1120   2.437       .  S
Zr1118     O1124   2.377       .  S
Zr1118     O1123   2.368       .  S
Zr1118     O1128   2.367       .  S
Zr1118     O1126   2.380       .  S
O1119      H1135   0.990       .  S
O1120      H1134   0.990       .  S
O1120      H1144   0.990       .  S
Zr1121     O1124   2.390       .  S
Zr1121     O1126   2.402       .  S
Zr1121     O1127   2.394       .  S
Zr1122     O1123   2.391       .  S
Zr1122     O1125   2.389       .  S
Zr1122     O1128   2.374       .  S
O1123      H1131   0.966       .  S
O1126      H1130   0.966       .  S
O1127      H1132   0.966       .  S
C1145      C1146   1.409       .  A
C1145      C1150   1.406       .  A
C1145      F1152   1.358       .  S
C1146      C1147   1.411       .  A
C1147      C1148   1.416       .  A
C1147      F1154   1.357       .  S
C1148      C1149   1.414       .  A
C1148      F1153   1.356       .  S
C1149      C1150   1.412       .  A
C1150      F1151   1.358       .  S
C1155      C1160   1.396       .  A
C1155      F1162   1.357       .  S
C1156      C1157   1.404       .  A
C1157      F1164   1.357   1_545  S
C1158      C1159   1.403       .  A
C1158      F1163   1.358       .  S
C1159      C1160   1.404   1_556  A
C1160      F1161   1.358   1_554  S
C1165      C1166   1.404       .  A
C1165      C1170   1.387       .  A
C1165      F1172   1.359       .  S
C1166      C1167   1.396       .  A
C1167      C1168   1.394       .  A
C1167      F1174   1.358       .  S
C1168      C1169   1.413       .  A
C1168      F1173   1.358       .  S
C1169      C1170   1.403       .  A
C1170      F1171   1.358       .  S
C1175      C1176   1.416       .  A
C1175      C1180   1.414       .  A
C1175      F1182   1.358       .  S
C1176      C1177   1.409       .  A
C1177      C1178   1.416       .  A
C1177      F1184   1.357       .  S
C1178      C1179   1.418       .  A
C1178      F1183   1.356   1_556  S
C1179      C1180   1.411       .  A
C1180      F1181   1.357       .  S
C1185      C1186   1.406       .  A
C1185      C1190   1.391       .  A
C1185      F1192   1.358       .  S
C1186      C1187   1.414       .  A
C1187      C1188   1.402       .  A
C1187      F1194   1.358       .  S
C1188      C1189   1.401       .  A
C1188      F1193   1.358       .  S
C1189      C1190   1.404       .  A
C1190      F1191   1.358       .  S
C1195      C1196   1.414       .  A
C1195      C1200   1.417       .  A
C1196      C1197   1.410       .  A
C1197      C1198   1.403       .  A
C1197      F1204   1.355       .  S
C1198      C1199   1.411       .  A
C1198      F1203   1.358       .  S
C1199      C1200   1.410       .  A
C1200      F1201   1.357       .  S
C1205      C1206   1.412       .  A
C1205      C1210   1.414       .  A
C1205      F1212   1.353       .  S
C1206      C1207   1.414       .  A
C1207      C1208   1.403       .  A
C1207      F1214   1.357       .  S
C1208      C1209   1.403       .  A
C1208      F1213   1.358       .  S
C1209      C1210   1.412       .  A
C1210      F1211   1.358       .  S
C1215      C1216   1.409       .  A
C1215      C1220   1.403       .  A
C1215      F1222   1.356       .  S
C1216      C1217   1.411       .  A
C1217      C1218   1.394       .  A
C1217      F1224   1.358       .  S
C1218      C1219   1.401       .  A
C1218      F1223   1.359       .  S
C1219      C1220   1.406       .  A
C1220      F1221   1.358       .  S
N1225      C1229   1.374       .  A
N1225      C1430   1.366       .  A
N1225      C1410   1.464   1_556  S
C1226      N1429   1.367       .  A
C1226      C1227   1.379       .  A
C1226      C1420   1.483       .  S
C1227      C1228   1.358       .  A
C1227      H1230   1.082       .  S
C1228      C1433   1.382       .  A
C1228      H1231   1.083       .  S
C1229      C1432   1.382       .  A
C1229      C1470   1.490   1_556  S
N1232      C1236   1.376       .  A
N1232      C1233   1.362       .  A
N1232      C1604   1.462   1_554  S
C1233      C1234   1.376       .  A
C1233      C1393   1.470       .  S
C1234      C1235   1.360       .  A
C1234      H1237   1.083       .  S
C1235      C1236   1.386       .  A
C1235      H1238   1.083       .  S
C1236      C1267   1.505       .  S
N1239      C1243   1.387       .  A
N1239      C1240   1.363       .  A
N1239      C1587   1.473   1_554  S
C1240      C1241   1.367       .  A
C1240      C1370   1.467       .  S
C1241      C1242   1.352       .  A
C1241      H1244   1.083       .  S
C1242      C1243   1.396       .  A
C1242      H1245   1.080       .  S
C1243      C1473   1.532       .  S
N1246      C1250   1.359       .  A
N1246      H1278   1.042       .  S
N1247      C1254   1.349       .  A
N1247      C1255   1.355       .  A
N1248      C1252   1.360       .  A
N1249      C1256   1.357       .  A
N1249      C1257   1.357       .  A
C1250      C1258   1.388       .  A
C1250      C1266   1.428       .  A
C1251      C1471   1.421       .  A
C1252      C1260   1.389   1_654  A
C1252      C1473   1.433       .  A
C1253      C1261   1.382   1_554  A
C1254      C1266   1.417       .  A
C1254      C1262   1.387       .  A
C1255      C1263   1.385       .  A
C1256      C1264   1.387       .  A
C1256      C1267   1.425       .  A
C1257      C1265   1.384       .  A
C1257      C1268   1.421       .  A
C1258      C1259   1.379       .  A
C1258      H1270   1.082       .  S
C1260      H1272   1.082       .  S
C1261      H1273   1.079       .  S
C1262      C1263   1.384       .  A
C1262      H1274   1.082       .  S
C1264      C1265   1.380       .  A
C1264      H1276   1.079       .  S
C1265      H1277   1.082       .  S
C1266      C1433   1.492       .  S
C1267      C1455   1.422   1_554  A
C1269      C1456   1.427       .  A
C1269      C1447   1.531       .  S
N1280      C1284   1.365       .  A
N1280      C1281   1.366       .  A
N1280      C1360   1.434       .  S
C1281      C1282   1.385       .  A
C1281      C1353   1.507       .  S
C1282      H1285   1.082       .  S
C1283      H1286   1.082       .  S
O1287     Zr1299   2.458       .  S
O1287      C1289   1.292       .  A
O1288     Zr1325   2.395       .  S
O1288      C1289   1.281       .  A
C1289      C1423   1.465       .  S
O1290     Zr1302   2.449       .  S
O1290      C1292   1.291       .  A
O1291     Zr1326   2.388       .  S
O1291      C1292   1.279       .  A
C1292      C1390   1.476       .  S
O1293     Zr1302   2.432       .  S
O1293      C1295   1.286       .  A
O1294     Zr1325   2.498       .  S
O1294      C1295   1.300       .  A
C1295      C1403   1.510       .  S
O1296     Zr1299   2.461       .  S
O1296      C1298   1.291       .  A
O1297     Zr1326   2.465       .  S
O1297      C1298   1.294       .  A
C1298      C1413   1.497       .  S
Zr1299     O1300   2.433       .  S
Zr1299     O1301   2.436       .  S
Zr1299     O1305   2.369       .  S
Zr1299     O1306   2.376       .  S
Zr1299     O1329   2.375       .  S
Zr1299     O1331   2.374       .  S
O1300      H1343   0.990       .  S
O1301      H1342   0.990       .  S
O1301      H1346   0.990       .  S
Zr1302     O1303   2.435       .  S
Zr1302     O1304   2.434       .  S
Zr1302     O1306   2.366       .  S
Zr1302     O1305   2.369       .  S
Zr1302     O1330   2.374       .  S
Zr1302     O1332   2.360       .  S
O1303      H1344   0.990       .  S
O1303      H1347   0.990       .  S
O1304      H1337   0.990       .  S
O1305     Zr1325   2.387       .  S
O1306     Zr1326   2.385       .  S
O1306      H1333   0.966       .  S
O1307     Zr1319   2.458       .  S
O1307      C1309   1.292       .  A
O1308     Zr1326   2.390       .  S
O1308      C1309   1.280       .  A
C1309      C1373   1.477       .  S
O1310     Zr1322   2.441       .  S
O1310      C1312   1.288       .  A
O1311     Zr1325   2.407       .  S
O1311      C1312   1.283       .  A
C1312      C1363   1.461       .  S
O1313     Zr1322   2.450       .  S
O1313      C1315   1.290       .  A
O1314     Zr1326   2.463       .  S
O1314      C1315   1.294       .  A
C1315      C1350   1.499       .  S
O1316     Zr1319   2.433       .  S
O1316      C1318   1.286       .  A
O1317     Zr1325   2.501       .  S
O1317      C1318   1.301       .  A
C1318      C1380   1.507       .  S
Zr1319     O1320   2.436       .  S
Zr1319     O1321   2.434       .  S
Zr1319     O1327   2.370       .  S
Zr1319     O1328   2.378       .  S
Zr1319     O1331   2.384       .  S
Zr1319     O1329   2.373       .  S
O1320      H1340   0.990       .  S
O1320      H1345   0.990       .  S
O1321      H1341   0.990       .  S
Zr1322     O1323   2.435       .  S
Zr1322     O1324   2.437       .  S
Zr1322     O1328   2.375       .  S
Zr1322     O1327   2.374       .  S
Zr1322     O1332   2.369       .  S
Zr1322     O1330   2.377       .  S
O1323      H1339   0.990       .  S
O1324      H1338   0.990       .  S
O1324      H1348   0.990       .  S
Zr1325     O1328   2.390       .  S
Zr1325     O1330   2.397       .  S
Zr1325     O1331   2.397       .  S
Zr1326     O1327   2.387       .  S
Zr1326     O1329   2.385       .  S
Zr1326     O1332   2.380       .  S
O1327      H1335   0.966       .  S
O1330      H1334   0.966       .  S
O1331      H1336   0.966       .  S
C1349      C1350   1.410       .  A
C1349      C1354   1.405       .  A
C1349      F1356   1.358       .  S
C1350      C1351   1.409       .  A
C1351      C1352   1.411       .  A
C1351      F1358   1.357       .  S
C1352      C1353   1.411       .  A
C1352      F1357   1.356       .  S
C1353      C1354   1.412       .  A
C1354      F1355   1.358       .  S
C1359      C1564   1.405       .  A
C1359      C1364   1.398       .  A
C1359      F1366   1.357       .  S
C1360      C1563   1.405       .  A
C1360      C1361   1.403       .  A
C1361      C1566   1.394   1_554  A
C1361      F1368   1.357       .  S
C1362      C1565   1.392       .  A
C1362      C1363   1.402       .  A
C1362      F1367   1.358       .  S
C1363      C1364   1.405       .  A
C1364      F1365   1.358       .  S
C1369      C1370   1.405       .  A
C1369      C1374   1.395       .  A
C1369      F1376   1.359       .  S
C1370      C1371   1.398       .  A
C1371      C1372   1.397       .  A
C1371      F1378   1.358       .  S
C1372      C1373   1.413       .  A
C1372      F1377   1.358       .  S
C1373      C1374   1.405       .  A
C1374      F1375   1.358       .  S
C1379      C1380   1.414       .  A
C1379      C1384   1.409       .  A
C1379      F1386   1.358       .  S
C1380      C1381   1.407       .  A
C1381      C1382   1.414       .  A
C1381      F1388   1.357       .  S
C1382      C1383   1.418       .  A
C1382      F1387   1.357       .  S
C1383      N1443   1.461       .  S
C1383      C1384   1.410       .  A
C1384      F1385   1.357       .  S
C1389      C1390   1.405       .  A
C1389      C1394   1.389       .  A
C1389      F1396   1.358       .  S
C1390      C1391   1.414       .  A
C1391      C1392   1.400       .  A
C1391      F1398   1.358       .  S
C1392      C1393   1.401       .  A
C1392      F1397   1.358       .  S
C1393      C1394   1.404       .  A
C1394      F1395   1.358       .  S
C1399      C1400   1.415       .  A
C1399      C1404   1.419       .  A
C1399      F1610   1.357       .  S
C1400      N1436   1.463       .  S
C1400      C1401   1.411       .  A
C1401      C1402   1.404       .  A
C1401      F1408   1.355       .  S
C1402      C1403   1.413       .  A
C1402      F1407   1.358       .  S
C1403      C1404   1.412       .  A
C1404      F1405   1.357       .  S
F1406      C1603   1.357   1_554  S
C1409      C1410   1.411       .  A
C1409      C1414   1.411       .  A
C1409      F1416   1.350       .  S
C1410      C1411   1.416       .  A
C1411      C1412   1.408       .  A
C1411      F1418   1.358       .  S
C1412      C1413   1.405       .  A
C1412      F1417   1.358       .  S
C1413      C1414   1.409       .  A
C1414      F1415   1.357       .  S
C1419      C1420   1.407       .  A
C1419      C1424   1.399       .  A
C1419      F1426   1.357       .  S
C1420      C1421   1.409       .  A
C1421      C1422   1.394       .  A
C1421      F1428   1.358       .  S
C1422      C1423   1.401       .  A
C1422      F1427   1.359       .  S
C1423      C1424   1.404       .  A
C1424      F1425   1.358       .  S
N1429      C1433   1.376       .  A
N1429      C1614   1.466       .  S
C1430      C1431   1.381       .  A
C1430      C1624   1.482       .  S
C1431      C1432   1.358       .  A
C1431      H1434   1.082       .  S
C1432      H1435   1.083       .  S
N1436      C1440   1.375       .  A
N1436      C1437   1.363       .  A
C1437      C1438   1.376       .  A
C1437      C1597   1.474       .  S
C1438      C1439   1.359       .  A
C1438      H1441   1.083       .  S
C1439      C1440   1.387       .  A
C1439      H1442   1.083       .  S
C1440      C1471   1.509       .  S
N1443      C1447   1.382       .  A
N1443      C1444   1.360       .  A
C1444      C1445   1.367       .  A
C1444      C1574   1.466       .  S
C1445      C1446   1.355       .  A
C1445      H1448   1.083       .  S
C1446      C1447   1.397       .  A
C1446      H1449   1.080       .  S
N1450      C1454   1.359   1_554  A
N1450      H1482   1.043       .  S
N1451      C1458   1.349       .  A
N1451      C1459   1.355       .  A
N1452      C1456   1.357       .  A
N1453      C1460   1.357       .  A
N1453      C1461   1.357       .  A
C1454      C1462   1.388       .  A
C1454      C1470   1.425   1_556  A
C1456      C1464   1.389   1_655  A
C1457      C1465   1.383       .  A
C1458      C1470   1.416       .  A
C1458      C1466   1.387       .  A
C1459      C1467   1.385       .  A
C1460      C1468   1.388       .  A
C1460      C1471   1.425       .  A
C1461      C1469   1.384       .  A
C1461      C1472   1.421       .  A
C1462      C1463   1.376       .  A
C1462      H1474   1.082       .  S
C1464      H1476   1.082       .  S
C1465      H1477   1.079       .  S
C1466      C1467   1.382       .  A
C1466      H1478   1.083       .  S
C1468      C1469   1.382       .  A
C1468      H1480   1.079       .  S
C1469      H1481   1.082       .  S
N1484      C1488   1.365       .  A
N1484      C1485   1.364       .  A
N1484      C1564   1.429       .  S
C1485      C1486   1.384       .  A
C1485      C1557   1.507       .  S
C1486      H1489   1.082       .  S
C1487      H1490   1.082       .  S
O1491     Zr1503   2.455       .  S
O1491      C1493   1.291       .  A
O1492     Zr1529   2.388       .  S
O1492      C1493   1.280       .  A
C1493      C1627   1.462       .  S
O1494     Zr1506   2.459       .  S
O1494      C1496   1.292       .  A
O1495     Zr1530   2.398       .  S
O1495      C1496   1.281       .  A
C1496      C1594   1.487       .  S
O1497     Zr1506   2.431       .  S
O1497      C1499   1.287       .  A
O1498     Zr1529   2.504       .  S
O1498      C1499   1.301       .  A
C1499      C1607   1.511       .  S
O1500     Zr1503   2.454       .  S
O1500      C1502   1.289       .  A
O1501     Zr1530   2.465       .  S
O1501      C1502   1.294       .  A
C1502      C1617   1.496       .  S
Zr1503     O1504   2.436       .  S
Zr1503     O1505   2.434       .  S
Zr1503     O1509   2.363       .  S
Zr1503     O1510   2.378       .  S
Zr1503     O1533   2.374       .  S
Zr1503     O1535   2.378       .  S
O1504      H1547   0.990       .  S
O1505      H1546   0.990       .  S
O1505      H1550   0.990       .  S
Zr1506     O1507   2.435       .  S
Zr1506     O1508   2.437       .  S
Zr1506     O1510   2.369       .  S
Zr1506     O1509   2.371       .  S
Zr1506     O1534   2.381       .  S
Zr1506     O1536   2.361       .  S
O1507      H1548   0.990       .  S
O1507      H1551   0.990       .  S
O1508      H1541   0.990       .  S
O1509     Zr1529   2.389       .  S
O1510     Zr1530   2.385       .  S
O1510      H1537   0.966       .  S
O1511     Zr1523   2.466       .  S
O1511      C1513   1.293       .  A
O1512     Zr1530   2.389       .  S
O1512      C1513   1.280       .  A
C1513      C1577   1.478       .  S
O1514     Zr1526   2.450       .  S
O1514      C1516   1.290       .  A
O1515     Zr1529   2.411       .  S
O1515      C1516   1.283       .  A
C1516      C1567   1.467       .  S
O1517     Zr1526   2.454       .  S
O1517      C1519   1.291       .  A
O1518     Zr1530   2.460       .  S
O1518      C1519   1.293       .  A
C1519      C1554   1.496       .  S
O1520     Zr1523   2.452       .  S
O1520      C1522   1.289       .  A
O1521     Zr1529   2.520       .  S
O1521      C1522   1.305       .  A
C1522      C1584   1.527       .  S
Zr1523     O1524   2.438       .  S
Zr1523     O1525   2.437       .  S
Zr1523     O1531   2.370       .  S
Zr1523     O1532   2.381       .  S
Zr1523     O1535   2.386       .  S
Zr1523     O1533   2.377       .  S
O1524      H1544   0.990       .  S
O1524      H1549   0.990       .  S
O1525      H1545   0.990       .  S
Zr1526     O1527   2.434       .  S
Zr1526     O1528   2.435       .  S
Zr1526     O1532   2.380       .  S
Zr1526     O1531   2.377       .  S
Zr1526     O1536   2.369       .  S
Zr1526     O1534   2.372       .  S
O1527      H1543   0.990       .  S
O1528      H1542   0.990       .  S
O1528      H1552   0.990       .  S
Zr1529     O1532   2.391       .  S
Zr1529     O1534   2.401       .  S
Zr1529     O1535   2.398       .  S
Zr1530     O1531   2.392       .  S
Zr1530     O1533   2.386       .  S
Zr1530     O1536   2.380       .  S
O1531      H1539   0.966       .  S
O1534      H1538   0.966       .  S
O1535      H1540   0.966       .  S
C1553      C1554   1.407       .  A
C1553      C1558   1.404       .  A
C1553      F1560   1.358       .  S
C1554      C1555   1.409       .  A
C1555      C1556   1.412       .  A
C1555      F1562   1.358       .  S
C1556      C1557   1.413       .  A
C1556      F1561   1.356       .  S
C1557      C1558   1.410       .  A
C1558      F1559   1.358       .  S
C1563      C1568   1.400       .  A
C1563      F1570   1.357       .  S
C1564      C1565   1.401       .  A
C1565      F1572   1.357       .  S
C1566      C1567   1.402       .  A
C1566      F1571   1.358       .  S
C1567      C1568   1.406   1_556  A
C1568      F1569   1.358   1_554  S
C1573      C1574   1.402       .  A
C1573      C1578   1.393       .  A
C1573      F1580   1.358       .  S
C1574      C1575   1.399       .  A
C1575      C1576   1.399       .  A
C1575      F1582   1.358       .  S
C1576      C1577   1.414       .  A
C1576      F1581   1.358       .  S
C1577      C1578   1.406       .  A
C1578      F1579   1.357       .  S
C1583      C1584   1.420       .  A
C1583      C1588   1.417       .  A
C1583      F1590   1.357       .  S
C1584      C1585   1.411       .  A
C1585      C1586   1.419       .  A
C1585      F1592   1.357       .  S
C1586      C1587   1.420       .  A
C1586      F1591   1.357   1_556  S
C1587      C1588   1.412       .  A
C1588      F1589   1.357       .  S
C1593      C1594   1.408       .  A
C1593      C1598   1.395       .  A
C1593      F1600   1.358       .  S
C1594      C1595   1.417       .  A
C1595      C1596   1.398       .  A
C1595      F1602   1.358       .  S
C1596      C1597   1.399       .  A
C1596      F1601   1.357       .  S
C1597      C1598   1.406       .  A
C1598      F1599   1.359       .  S
C1603      C1604   1.417       .  A
C1603      C1608   1.420       .  A
C1604      C1605   1.408       .  A
C1605      C1606   1.402       .  A
C1605      F1612   1.353       .  S
C1606      C1607   1.413       .  A
C1606      F1611   1.358       .  S
C1607      C1608   1.413       .  A
C1608      F1609   1.357       .  S
C1613      C1614   1.412       .  A
C1613      C1618   1.412       .  A
C1613      F1620   1.351       .  S
C1614      C1615   1.419       .  A
C1615      C1616   1.405       .  A
C1615      F1622   1.357       .  S
C1616      C1617   1.403       .  A
C1616      F1621   1.358       .  S
C1617      C1618   1.410       .  A
C1618      F1619   1.357       .  S
C1623      C1624   1.408       .  A
C1623      C1628   1.397       .  A
C1623      F1630   1.356       .  S
C1624      C1625   1.410       .  A
C1625      C1626   1.393       .  A
C1625      F1632   1.358       .  S
C1626      C1627   1.400       .  A
C1626      F1631   1.359       .  S
C1627      C1628   1.402       .  A
C1628      F1629   1.358       .  S
