geometry optimzed in LAMMPS
_audit_creation_date              2020-11-30 
_audit_creation_method            'lammps2cif' 
_symmetry_space_group_name_H-M    'P1' 
_symmetry_Int_Tables_number       1 
_symmetry_cell_setting            triclinic 
loop_ 
_symmetry_equiv_pos_as_xyz 
  x,y,z 
_cell_length_a                    48.26625293 
_cell_length_b                    25.150379876274833 
_cell_length_c                    37.08324158387981 
_cell_angle_alpha                 89.97740418326221 
_cell_angle_beta                  89.85250123966368 
_cell_angle_gamma                 89.43469838380287 
loop_ 
_atom_site_label 
_atom_site_type_symbol 
_atom_site_fract_x 
_atom_site_fract_y 
_atom_site_fract_z 
_atom_site_charge 
C1          C  0.36293769  0.75368990  0.99616266     0.79800
N2          N  0.35016435  0.74049720  0.46817251    -0.78600
C3          C  0.32959633  0.70422807  0.46836179     0.82200
N4          N  0.32036218  0.68474720  0.50022210    -0.78500
C5          C  0.33394598  0.69653653  0.02957233     0.82300
N6          N  0.35445162  0.73317020  0.02827731    -0.80200
C7          C  0.11701352  0.85516440  0.00068734     0.79800
N8          N  0.11920300  0.82651892  0.46633576    -0.78600
C9          C  0.13497703  0.78167125  0.46435793     0.82200
N10         N  0.14598313  0.76081784  0.49483721    -0.78500
C11         C  0.14520359  0.78936670  0.02780307     0.82300
N12         N  0.12860901  0.83309179  0.03067562    -0.80200
C13         C  0.30799493  0.26754502  0.00029850     0.79800
N14         N  0.29836929  0.29407031  0.47114428    -0.78600
C15         C  0.27926562  0.33411211  0.47324914     0.82200
N16         N  0.26948507  0.34966051  0.50594140    -0.78500
C17         C  0.27977382  0.32408153  0.03554825     0.82300
N18         N  0.29823996  0.28358171  0.03291294    -0.80200
N19         N  0.47635618  0.98159182  0.00281840    -0.37100
N20         N  0.42425247  0.03942803  0.99661071    -0.57600
N21         N  0.45414685  0.13971890  0.00108395    -0.37100
N22         N  0.00196356  0.08376936  0.00264284    -0.57600
C23         C  0.45918204  0.94193202  0.99316960     0.26500
C24         C  0.50252553  0.96460521  0.99630567     0.26500
C25         C  0.42854650  0.15711275  0.99211574     0.26500
C26         C  0.47192321  0.17956003  0.99385149     0.26500
C27         C  0.41454759  0.98999287  0.00250514     0.35100
C28         C  0.40275327  0.07316459  0.00224506     0.35100
C29         C  0.02298360  0.05019556  0.01076152     0.35100
C30         C  0.01096355  0.13307647  0.01018807     0.35100
C31         C  0.47464708  0.89894707  0.98067009    -0.22400
C32         C  0.50205608  0.91324906  0.98270339    -0.22400
C33         C  0.42993781  0.20895108  0.97950227    -0.22400
C34         C  0.45738745  0.22302094  0.98036493    -0.22400
C35         C  0.38667876  0.99229731  0.01158444    -0.23400
C36         C  0.37918938  0.04510577  0.01138472    -0.23400
C37         C  0.04558782  0.07820384  0.02324936    -0.23400
C38         C  0.03792880  0.13088677  0.02298294    -0.23400
C39         C  0.43004455  0.94272344  0.99706042    -0.18800
C40         C  0.02263585  0.99502315  0.00455147    -0.18800
C41         C  0.99620521  0.18018401  0.00196972    -0.18800
C42         C  0.40379255  0.12873119  0.99740283    -0.18800
H43         H  0.46699449  0.86110191  0.97127698     0.14100
H44         H  0.01602706  0.89045398  0.97529458     0.14100
H45         H  0.41291185  0.23413272  0.97079683     0.14100
H46         H  0.46562372  0.26114186  0.97239043     0.14100
H47         H  0.37310713  0.95934749  0.01735174     0.12400
H48         H  0.35871302  0.06100057  0.01702378     0.12400
H49         H  0.06559427  0.06238720  0.03120688     0.12400
H50         H  0.05090017  0.16389510  0.03056550     0.12400
H51         H  0.47069675  0.01706870  0.01520383     0.25700
H52         H  0.45886417  0.10386649  0.01356186     0.25700
C53         C  0.06452519  0.36673164  0.99840158     0.79800
N54         N  0.07644763  0.38564242  0.46379068    -0.78600
C55         C  0.09723124  0.42111423  0.46345362     0.82200
N56         N  0.10693001  0.44034419  0.49492245    -0.78500
C57         C  0.09619678  0.42189419  0.02881686     0.82300
N58         N  0.07543125  0.38562134  0.02976737    -0.80200
O59         O  0.27944962  0.64425853  0.31015914    -0.75800
O60         O  0.24761525  0.61235617  0.35000568    -0.54700
C61         C  0.26957559  0.63849706  0.34223122     0.78000
O62         O  0.17747891  0.68732392  0.18291725    -0.60400
O63         O  0.19669220  0.62692525  0.14402404    -0.53400
C64         C  0.18274682  0.66953916  0.15110377     0.70000
O65         O  0.17157427  0.69207994  0.30407450    -0.74900
O66         O  0.18802462  0.63494782  0.34673924    -0.55500
C67         C  0.17422079  0.67630414  0.33694530     0.76000
O68         O  0.28557014  0.62940228  0.18862453    -0.60100
O69         O  0.25657667  0.59271094  0.14722343    -0.53200
C70         C  0.27878094  0.61716567  0.15607308     0.72600
Zr71       Zr  0.26666238  0.61600506  0.24939609     2.54700
O72         O  0.28283419  0.70715489  0.24527114    -0.80600
O73         O  0.31395251  0.58208590  0.25408450    -0.94000
Zr74       Zr  0.18699956  0.66047058  0.24470394     2.64700
O75         O  0.20524427  0.75040002  0.24477987    -0.99000
O76         O  0.13970715  0.69436389  0.24088733    -0.81100
O77         O  0.22589895  0.64175961  0.28154054    -0.84400
O78         O  0.22807391  0.63760387  0.21246163    -2.19100
O79         O  0.25468964  0.42583294  0.19476334    -0.67800
O80         O  0.23722212  0.48062817  0.15096022    -0.52400
C81         C  0.24943390  0.43791803  0.16181221     0.71000
O82         O  0.14750541  0.48581393  0.30601029    -0.60700
O83         O  0.17606754  0.52317421  0.34768865    -0.52700
C84         C  0.15490836  0.49572903  0.33859584     0.72800
O85         O  0.15077994  0.48296774  0.18461601    -0.72100
O86         O  0.18193652  0.51804558  0.14556804    -0.50800
C87         C  0.16002798  0.49157330  0.15250664     0.74100
O88         O  0.24933645  0.43469345  0.31618600    -0.67400
O89         O  0.23202019  0.49792133  0.35423275    -0.54600
C90         C  0.24377269  0.45285533  0.34790661     0.72500
Zr91       Zr  0.24412074  0.46390574  0.25351618     2.77500
O92         O  0.23043826  0.37111459  0.25711985    -0.98200
O93         O  0.29294818  0.43968104  0.25756856    -0.79000
Zr94       Zr  0.16437811  0.50786545  0.24595932     2.70100
O95         O  0.14819705  0.41651943  0.24597842    -0.80300
O96         O  0.11765247  0.54488093  0.24292633    -0.99300
Zr97       Zr  0.21301418  0.56600480  0.31565744     2.21500
Zr98       Zr  0.21788095  0.55805658  0.18070027     2.11100
O99         O  0.20555789  0.48271623  0.21573455    -2.48000
O100        O  0.20261914  0.48696451  0.28387537    -0.80100
O101        O  0.25717152  0.53715960  0.21675311    -0.72200
O102        O  0.17364862  0.58583221  0.27951199    -2.33200
O103        O  0.25499480  0.54192573  0.28608349    -2.29400
O104        O  0.17632532  0.58297530  0.21083187    -0.74000
H105        H  0.23284045  0.66582180  0.19596162     0.78000
H106        H  0.15755299  0.59415746  0.29402912     0.79100
H107        H  0.20169895  0.45226354  0.20080661     0.81300
H108        H  0.26952855  0.53471082  0.30325545     0.78900
H109        H  0.12803623  0.66285172  0.24527867     0.41900
H110        H  0.11624688  0.56014596  0.21837057     0.40900
H111        H  0.16516088  0.39481655  0.24201591     0.40600
H112        H  0.21991466  0.36444742  0.23472850     0.38500
H113        H  0.30246959  0.46594084  0.24211639     0.41700
H114        H  0.31500818  0.56538365  0.27822370     0.36400
H115        H  0.26571815  0.72882218  0.24277404     0.42600
H116        H  0.21605287  0.75306891  0.22213852     0.39000
H117        H  0.24793357  0.35071037  0.25404848     0.43900
H118        H  0.32545142  0.61432725  0.25610418     0.42600
H119        H  0.18881097  0.77347515  0.24069170     0.42800
H120        H  0.10548142  0.51343413  0.24240251     0.43100
C121        C  0.14420487  0.47063940  0.12123233    -0.06600
C122        C  0.11597442  0.45853508  0.12570586    -0.17700
C123        C  0.09945475  0.44330127  0.09646553     0.10600
C124        C  0.11141078  0.43830781  0.06177850    -0.06500
C125        C  0.13976050  0.44887026  0.05770476    -0.17800
C126        C  0.15626233  0.46464274  0.08649320     0.10600
S127        S  0.06312132  0.43477569  0.10507311    -0.32700
S128        S  0.19255825  0.47675019  0.07713183    -0.32700
H129        H  0.19424315  0.44862505  0.04438892     0.28600
H130        H  0.05468681  0.46067651  0.07324784     0.28600
H131        H  0.10629731  0.46318479  0.15192811     0.19200
H132        H  0.14932727  0.44493499  0.03147134     0.19200
C133        C  0.11161797  0.43376234  0.42973939    -0.06600
C134        C  0.09627938  0.45209436  0.40010813    -0.17700
C135        C  0.10963787  0.47160194  0.36934083     0.10600
C136        C  0.13892474  0.47253726  0.36835055    -0.06500
C137        C  0.15404031  0.45086728  0.39713963    -0.17800
C138        C  0.14076633  0.43045421  0.42733412     0.10600
S139        S  0.08822364  0.49716752  0.33344058    -0.32700
S140        S  0.16225508  0.39892287  0.46106974    -0.32700
H141        H  0.14237515  0.36175001  0.47216480     0.28600
H142        H  0.10486406  0.54158910  0.32638119     0.28600
H143        H  0.07385501  0.45353687  0.40161855     0.19200
H144        H  0.17649059  0.44919013  0.39590095     0.19200
C145        C  0.01207062  0.23013372  0.99910678    -0.06600
C146        C  0.00716286  0.27092885  0.02416462    -0.17700
C147        C  0.02304163  0.31737481  0.02372247     0.10600
C148        C  0.04493981  0.32194175  0.99861072    -0.06500
C149        C  0.05045739  0.28439946  0.46873573    -0.17800
C150        C  0.03380170  0.23964410  0.46718333     0.10600
S151        S  0.01391598  0.37149546  0.05345195    -0.32700
S152        S  0.04047974  0.19244815  0.43145231    -0.32700
H153        H  0.51534389  0.17364864  0.43206325     0.28600
H154        H  0.99261895  0.34542543  0.07218636     0.28600
H155        H  0.99083125  0.26618289  0.04394473     0.19200
H156        H  0.06726180  0.28790354  0.44946341     0.19200
C157        C  0.37770256  0.15982669  0.99935152    -0.06600
C158        C  0.35938536  0.16282380  0.47154552    -0.17700
C159        C  0.33567846  0.19542678  0.47133828     0.10600
C160        C  0.33071466  0.22735877  0.99918673    -0.06500
C161        C  0.34752760  0.22234270  0.03002924    -0.17800
C162        C  0.37062048  0.18874400  0.03057969     0.10600
S163        S  0.31272032  0.18974410  0.43334176    -0.32700
S164        S  0.39073002  0.18632073  0.07160493    -0.32700
H165        H  0.40251178  0.13559412  0.06653385     0.28600
H166        H  0.28832746  0.19430222  0.45402312     0.28600
H167        H  0.36374656  0.13732959  0.44862835     0.19200
H168        H  0.34313902  0.24573358  0.05393129     0.19200
C169        C  0.27304067  0.34658227  0.07081431    -0.06600
C170        C  0.24550552  0.34563908  0.08270679    -0.17700
C171        C  0.23780868  0.37078054  0.11479848     0.10600
C172        C  0.25771221  0.39988027  0.13405264    -0.06500
C173        C  0.28551554  0.39793439  0.12351692    -0.17800
C174        C  0.29345275  0.37151213  0.09202305     0.10600
S175        S  0.20256304  0.36387155  0.13022523    -0.32700
S176        S  0.32959096  0.37374931  0.07951095    -0.32700
H177        H  0.32535722  0.37754463  0.04212915     0.28600
H178        H  0.20868926  0.36856047  0.16709752     0.28600
H179        H  0.23000021  0.32522099  0.06695729     0.19200
H180        H  0.30084576  0.41961490  0.13877032     0.19200
C181        C  0.27113971  0.36435212  0.44082821    -0.06600
C182        C  0.26121182  0.33700733  0.41063271    -0.17700
C183        C  0.25125289  0.36458425  0.38037519     0.10600
C184        C  0.25219882  0.42083976  0.37962843    -0.06500
C185        C  0.26219982  0.44792641  0.40994184    -0.17800
C186        C  0.27182403  0.42051910  0.44021640     0.10600
S187        S  0.23600039  0.32584624  0.34483746    -0.32700
S188        S  0.28584871  0.45969027  0.47650435    -0.32700
H189        H  0.30728838  0.42350766  0.48490504     0.28600
H190        H  0.21455338  0.36260321  0.33754984     0.28600
H191        H  0.26018215  0.29397994  0.41120969     0.19200
H192        H  0.26329453  0.49096171  0.40970350     0.19200
C193        C  0.04907869  0.96502002  0.00660154    -0.06600
C194        C  0.06664793  0.96569541  0.47446788    -0.17700
C195        C  0.08946488  0.93118384  0.47267132     0.10600
C196        C  0.09616870  0.89829856  0.00405994    -0.06500
C197        C  0.07859933  0.89830893  0.03435971    -0.17800
C198        C  0.05527997  0.93154008  0.03602046     0.10600
S199        S  0.11104039  0.93502414  0.43301893    -0.32700
S200        S  0.03347514  0.92760085  0.07549795    -0.32700
H201        H  0.02355359  0.98029217  0.07405665     0.28600
H202        H  0.13590101  0.92366954  0.45134643     0.28600
H203        H  0.06183373  0.99103491  0.45163080     0.19200
H204        H  0.08227848  0.87059031  0.05624745     0.19200
C205        C  0.17190703  0.70044711  0.12042096    -0.06600
C206        C  0.17556879  0.75579464  0.11981038    -0.17700
C207        C  0.16735948  0.78622501  0.08994335     0.10600
C208        C  0.15500155  0.76081734  0.06014992    -0.06500
C209        C  0.15080373  0.70573938  0.06134202    -0.17800
C210        C  0.15854888  0.67562960  0.09124432     0.10600
S211        S  0.17430824  0.85647327  0.09092718    -0.32700
S212        S  0.14914576  0.60648265  0.09134156    -0.32700
H213        H  0.14329784  0.60422581  0.12850177     0.28600
H214        H  0.18021250  0.86085009  0.05389638     0.28600
H215        H  0.18566395  0.77519393  0.14225155     0.19200
H216        H  0.14046148  0.68610255  0.03924017     0.19200
C217        C  0.14014492  0.75508000  0.42958743    -0.06600
C218        C  0.14842837  0.78572937  0.39986881    -0.17700
C219        C  0.15820913  0.76153678  0.36819092     0.10600
C220        C  0.15988307  0.70548802  0.36624167    -0.06500
C221        C  0.14969938  0.67519462  0.39512089    -0.17800
C222        C  0.13977473  0.69912323  0.42648742     0.10600
S223        S  0.17087724  0.80399142  0.33291775    -0.32700
S224        S  0.12732944  0.65562106  0.46158150    -0.32700
H225        H  0.10702465  0.69122687  0.47467049     0.28600
H226        H  0.15154822  0.78536334  0.30766654     0.28600
H227        H  0.14868012  0.82869843  0.40200777     0.19200
H228        H  0.15002275  0.63212752  0.39358383     0.19200
C229        C  0.38296159  0.79809863  0.99482197    -0.06600
C230        C  0.37908315  0.83925911  0.47130562    -0.17700
C231        C  0.39511789  0.88508102  0.47068827     0.10600
C232        C  0.41490478  0.89167264  0.99437576    -0.06500
C233        C  0.41848851  0.85350742  0.02160141    -0.17800
C234        C  0.40327758  0.80638921  0.02166896     0.10600
S235        S  0.39007933  0.93038008  0.43347915    -0.32700
S236        S  0.41160069  0.75795421  0.05589312    -0.32700
H237        H  0.40821340  0.71381747  0.03304485     0.28600
H238        H  0.41739487  0.94924482  0.43276560     0.28600
H239        H  0.36378177  0.83406636  0.45030560     0.19200
H240        H  0.43329864  0.86053926  0.04295263     0.19200
C241        C  0.29718717  0.63383702  0.12628202    -0.06600
C242        C  0.30724621  0.68600888  0.12612880    -0.17700
C243        C  0.31992059  0.70737937  0.09539722     0.10600
C244        C  0.32343920  0.67545487  0.06425933    -0.06500
C245        C  0.31488153  0.62225205  0.06534456    -0.17800
C246        C  0.30212426  0.60105295  0.09593274     0.10600
S247        S  0.32843346  0.77694790  0.09661153    -0.32700
S248        S  0.29277494  0.53180882  0.09451261    -0.32700
H249        H  0.29648540  0.52276913  0.13164344     0.28600
H250        H  0.31623444  0.78846870  0.06302944     0.28600
H251        H  0.30342990  0.71157137  0.14917266     0.19200
H252        H  0.31792939  0.59696371  0.04196954     0.22100
C253        C  0.31517008  0.69018249  0.43475676    -0.06600
C254        C  0.28615043  0.69275951  0.43482430    -0.17700
C255        C  0.27093095  0.68056698  0.40404528     0.10600
C256        C  0.28482382  0.66216170  0.37274470    -0.06500
C257        C  0.31394833  0.66191531  0.37209263    -0.17800
C258        C  0.32924841  0.67587984  0.40268060     0.10600
S259        S  0.23398636  0.69200544  0.40601460    -0.32700
S260        S  0.36649582  0.67192746  0.39952607    -0.32700
H261        H  0.37062675  0.65314394  0.43484826     0.28600
H262        H  0.23173565  0.70885987  0.36992183     0.28600
H263        H  0.27521856  0.70586642  0.45885532     0.19200
H264        H  0.32489034  0.64844154  0.34817659     0.19200
C265        C  0.36192453  0.75672401  0.49952653     0.79800
N266        N  0.35039981  0.73764967  0.96532559    -0.78600
C267        C  0.33004349  0.70099659  0.96638580     0.82200
N268        N  0.32178057  0.68086971  0.99848814    -0.78500
C269        C  0.33173207  0.70061370  0.53180304     0.82300
N270        N  0.35246938  0.73683334  0.53136118    -0.80200
C271        C  0.11456179  0.85063489  0.49866164     0.79800
N272        N  0.12146212  0.83213084  0.96801986    -0.78600
C273        C  0.13772893  0.78821862  0.96507176     0.82200
N274        N  0.14951110  0.76707035  0.99498558    -0.78500
C275        C  0.14140187  0.78424015  0.52717536     0.82300
N276        N  0.12549352  0.82885204  0.52909059    -0.80200
C277        C  0.30738346  0.26929334  0.50166995     0.79800
N278        N  0.29943523  0.29372373  0.97006543    -0.78600
C279        C  0.28079644  0.33456345  0.97258473     0.82200
N280        N  0.27099998  0.34935812  0.00541889    -0.78500
C281        C  0.27869934  0.32574346  0.53637838     0.82300
N282        N  0.29764091  0.28593816  0.53415789    -0.80200
N283        N  0.47584712  0.98387738  0.50626303    -0.37100
N284        N  0.42379128  0.04184299  0.49962456    -0.57600
N285        N  0.45388013  0.14174478  0.50170649    -0.37100
N286        N  0.00296005  0.08617339  0.49908819    -0.57600
C287        C  0.45850411  0.94421117  0.49711425     0.26500
C288        C  0.50192449  0.96649814  0.49958071     0.26500
C289        C  0.42832519  0.15843337  0.49192090     0.26500
C290        C  0.47171787  0.18068165  0.49271166     0.26500
C291        C  0.41415868  0.99279587  0.50694015     0.35100
C292        C  0.40248620  0.07595426  0.50542490     0.35100
C293        C  0.02402977  0.05283885  0.50738385     0.35100
C294        C  0.01237801  0.13574514  0.50469709     0.35100
C295        C  0.47375421  0.90092113  0.48467552    -0.22400
C296        C  0.50120942  0.91494622  0.48632846    -0.22400
C297        C  0.42983011  0.20872335  0.47675725    -0.22400
C298        C  0.45730848  0.22268517  0.47706400    -0.22400
C299        C  0.38652571  0.99568374  0.51712289    -0.23400
C300        C  0.37911891  0.04854432  0.51619051    -0.23400
C301        C  0.04708600  0.08120155  0.51793921    -0.23400
C302        C  0.03965146  0.13392816  0.51638330    -0.23400
C303        C  0.42941392  0.94528639  0.50149463    -0.18800
C304        C  0.02321684  0.99734872  0.50311188    -0.18800
C305        C  0.99742767  0.18252587  0.49628285    -0.18800
C306        C  0.40352727  0.13110909  0.49895625    -0.18800
H307        H  0.46593701  0.86302829  0.47561424     0.14100
H308        H  0.01533622  0.89197286  0.47591791     0.14100
H309        H  0.41284830  0.23298269  0.46681351     0.14100
H310        H  0.46566199  0.25981190  0.46731865     0.14100
H311        H  0.37305703  0.96305592  0.52405039     0.12400
H312        H  0.35881314  0.06486682  0.52230372     0.12400
H313        H  0.06719731  0.06554313  0.52558624     0.12400
H314        H  0.05292825  0.16712518  0.52255122     0.12400
H315        H  0.47036038  0.01964177  0.51843272     0.25700
H316        H  0.45851921  0.10730903  0.51601012     0.25700
C317        C  0.06548413  0.36886869  0.49552183     0.79800
N318        N  0.07526029  0.38270626  0.96628280    -0.78600
C319        C  0.09622889  0.41786028  0.96524812     0.82200
N320        N  0.10633412  0.43746348  0.99639433    -0.78500
C321        C  0.09649607  0.42400427  0.52700031     0.82300
N322        N  0.07593819  0.38729762  0.52726594    -0.80200
O323        O  0.27654471  0.64413858  0.81076820    -0.75800
O324        O  0.24500757  0.61220015  0.85108674    -0.54700
C325        C  0.26703522  0.63791001  0.84292281     0.78000
O326        O  0.17333279  0.68694817  0.68374332    -0.60400
O327        O  0.19288618  0.62690745  0.64486547    -0.53400
C328        C  0.17854170  0.66901974  0.65197553     0.70000
O329        O  0.16932000  0.69459879  0.80425036    -0.74900
O330        O  0.18559691  0.63760441  0.84712020    -0.55500
C331        C  0.17212542  0.67937532  0.83715745     0.76000
O332        O  0.28249264  0.63103299  0.68959047    -0.60100
O333        O  0.25367254  0.59428331  0.64800557    -0.53200
C334        C  0.27576435  0.61898105  0.65700576     0.72600
Zr335      Zr  0.26353137  0.61719966  0.75016022     2.54700
O336        O  0.27894109  0.70898584  0.74735382    -0.80600
O337        O  0.31070516  0.58273520  0.75478444    -0.94000
Zr338      Zr  0.18420660  0.66137706  0.74533674     2.64700
O339        O  0.20550378  0.74873000  0.74368073    -0.99000
O340        O  0.13804099  0.70093640  0.74233803    -0.81100
O341        O  0.22282081  0.64234506  0.78249529    -0.84400
O342        O  0.22517189  0.63889511  0.71298258    -2.19100
O343        O  0.25232483  0.42716799  0.69552555    -0.67800
O344        O  0.23493222  0.48222574  0.65184306    -0.52400
C345        C  0.24722477  0.43953502  0.66257403     0.71000
O346        O  0.14502316  0.48524396  0.80702005    -0.60700
O347        O  0.17331440  0.52306398  0.84884230    -0.52700
C348        C  0.15239993  0.49498394  0.83967545     0.72800
O349        O  0.14815621  0.48495063  0.68475178    -0.72100
O350        O  0.17964095  0.52002458  0.64618280    -0.50800
C351        C  0.15771860  0.49368263  0.65273833     0.74100
O352        O  0.24819461  0.43666466  0.81667341    -0.67400
O353        O  0.22983233  0.49828695  0.85510554    -0.54600
C354        C  0.24248192  0.45406170  0.84853026     0.72500
Zr355      Zr  0.24131707  0.46509520  0.75419721     2.77500
O356        O  0.22626711  0.37317476  0.75810090    -0.98200
O357        O  0.29011394  0.44012391  0.75728612    -0.79000
Zr358      Zr  0.16144629  0.50869461  0.74679993     2.70100
O359        O  0.14424777  0.41801773  0.74745048    -0.80300
O360        O  0.11472007  0.54588633  0.74500777    -0.99300
Zr361      Zr  0.21002708  0.56671278  0.81681894     2.21500
Zr362      Zr  0.21512806  0.55924401  0.68159916     2.11100
O363        O  0.20270640  0.48374252  0.71646486    -2.48000
O364        O  0.19978220  0.48788850  0.78465990    -0.80100
O365        O  0.25435897  0.53837121  0.71754568    -0.72200
O366        O  0.17071969  0.58678795  0.78040654    -2.33200
O367        O  0.25188285  0.54318914  0.78681605    -2.29400
O368        O  0.17347397  0.58378948  0.71171500    -0.74000
H369        H  0.22987104  0.66700176  0.69636313     0.78000
H370        H  0.15466111  0.59531815  0.79494468     0.79100
H371        H  0.19893813  0.45336948  0.70141406     0.81300
H372        H  0.26651122  0.53614330  0.80388362     0.78900
H373        H  0.12557472  0.67262045  0.75102002     0.41900
H374        H  0.11568540  0.57471154  0.72686914     0.40900
H375        H  0.15817441  0.39726999  0.73357998     0.40600
H376        H  0.21218421  0.36956173  0.73892423     0.38500
H377        H  0.29862737  0.46772167  0.77259316     0.41700
H378        H  0.31281716  0.57207723  0.78033988     0.36400
H379        H  0.26491275  0.72741409  0.73231261     0.42600
H380        H  0.21168685  0.75336253  0.71840688     0.39000
H381        H  0.24232616  0.35190735  0.74946413     0.43900
H382        H  0.32251929  0.61447165  0.75219212     0.42600
H383        H  0.18978491  0.77401159  0.74637656     0.42800
H384        H  0.10352245  0.51800500  0.73332988     0.43100
C385        C  0.14251806  0.47302835  0.62089358    -0.06600
C386        C  0.11424349  0.46092269  0.62440303    -0.17700
C387        C  0.09835355  0.44580244  0.59457366     0.10600
C388        C  0.11106073  0.44042236  0.56038892    -0.06500
C389        C  0.13941767  0.45122906  0.55718862    -0.17800
C390        C  0.15523860  0.46782373  0.58638835     0.10600
S391        S  0.06179336  0.43814604  0.60169083    -0.32700
S392        S  0.19145865  0.48237622  0.57776426    -0.32700
H393        H  0.19329127  0.46212194  0.54248138     0.28600
H394        H  0.05429599  0.46381140  0.56938045     0.28600
H395        H  0.10403981  0.46565878  0.65027894     0.19200
H396        H  0.14943537  0.44702213  0.53126772     0.19200
C397        C  0.11018974  0.43044915  0.93110176    -0.06600
C398        C  0.09450479  0.44954733  0.90197906    -0.17700
C399        C  0.10748464  0.47004572  0.87118364     0.10600
C400        C  0.13675435  0.47078013  0.86945305    -0.06500
C401        C  0.15221633  0.44840956  0.89769099    -0.17800
C402        C  0.13933331  0.42746421  0.92804705     0.10600
S403        S  0.08564403  0.49768093  0.83642762    -0.32700
S404        S  0.16134284  0.39616923  0.96130604    -0.32700
H405        H  0.14171968  0.35871687  0.97272315     0.28600
H406        H  0.10272832  0.54137483  0.82909014     0.28600
H407        H  0.07210962  0.45116958  0.90404515     0.19200
H408        H  0.17465224  0.44690821  0.89598132     0.19200
C409        C  0.01293383  0.23280703  0.49338481    -0.06600
C410        C  0.00762422  0.27321633  0.51858954    -0.17700
C411        C  0.02361294  0.31941306  0.51910642     0.10600
C412        C  0.04599578  0.32411318  0.49481326    -0.06500
C413        C  0.04904058  0.28166064  0.97285897    -0.17800
C414        C  0.03254186  0.23662304  0.97233240     0.10600
S415        S  0.01414774  0.37295773  0.54913413    -0.32700
S416        S  0.03888439  0.18856938  0.93703777    -0.32700
H417        H  0.51652581  0.17112726  0.93340037     0.28600
H418        H  0.99256213  0.34662957  0.56711395     0.28600
H419        H  0.99099589  0.26820289  0.53791259     0.19200
H420        H  0.06547814  0.28489501  0.95303858     0.19200
C421        C  0.37760172  0.16282852  0.50092805    -0.06600
C422        C  0.36075640  0.16321771  0.96878037    -0.17700
C423        C  0.33711236  0.19596712  0.96851036     0.10600
C424        C  0.33046925  0.22999500  0.50076810    -0.06500
C425        C  0.34864311  0.22878200  0.53039542    -0.17800
C426        C  0.37182133  0.19535860  0.53095738     0.10600
S427        S  0.31586621  0.19462496  0.92866502    -0.32700
S428        S  0.39366227  0.19720414  0.57038906    -0.32700
H429        H  0.40281471  0.14405865  0.56850278     0.28600
H430        H  0.29064340  0.19641060  0.94776618     0.28600
H431        H  0.36611717  0.14038292  0.94493994     0.19200
H432        H  0.34513211  0.25479450  0.55326952     0.19200
C433        C  0.27154964  0.34867564  0.57145787    -0.06600
C434        C  0.24376557  0.34907607  0.58240208    -0.17700
C435        C  0.23576295  0.37411716  0.61441274     0.10600
C436        C  0.25564819  0.40179957  0.63463892    -0.06500
C437        C  0.28362152  0.39879251  0.62493892    -0.17800
C438        C  0.29183085  0.37249249  0.59347930     0.10600
S439        S  0.20012732  0.36877864  0.62857632    -0.32700
S440        S  0.32815582  0.37377832  0.58189636    -0.32700
H441        H  0.32432966  0.37972677  0.54455107     0.28600
H442        H  0.20559143  0.37203700  0.66571218     0.28600
H443        H  0.22830142  0.32963958  0.56601847     0.19200
H444        H  0.29891398  0.41961641  0.64080048     0.19200
C445        C  0.27251473  0.36537882  0.94038033    -0.06600
C446        C  0.26416860  0.33818812  0.90933593    -0.17700
C447        C  0.25347694  0.36564044  0.87946287     0.10600
C448        C  0.25185535  0.42197340  0.87995673    -0.06500
C449        C  0.26053638  0.44898254  0.91102691    -0.17800
C450        C  0.27112207  0.42158437  0.94083995     0.10600
S451        S  0.24058175  0.32609273  0.84277666    -0.32700
S452        S  0.28390862  0.46100297  0.97779567    -0.32700
H453        H  0.30640191  0.42693810  0.98562207     0.28600
H454        H  0.21703859  0.35839315  0.83692031     0.28600
H455        H  0.26485640  0.29509586  0.90894025     0.19200
H456        H  0.25993345  0.49206688  0.91171982     0.19200
C457        C  0.04947252  0.96684927  0.50493516    -0.06600
C458        C  0.06731633  0.96739228  0.97725256    -0.17700
C459        C  0.09098659  0.93506512  0.97587551     0.10600
C460        C  0.09466091  0.89557736  0.50151936    -0.06500
C461        C  0.07842430  0.89969142  0.53299213    -0.17800
C462        C  0.05615281  0.93535352  0.53514036     0.10600
S463        S  0.11354969  0.94275621  0.93741511    -0.32700
S464        S  0.03627895  0.93704374  0.57643916    -0.32700
H465        H  0.02614002  0.98932478  0.57271665     0.28600
H466        H  0.13808596  0.93115725  0.95639074     0.28600
H467        H  0.06274494  0.99391699  0.95495428     0.19200
H468        H  0.08230821  0.87347396  0.55565087     0.19200
C469        C  0.16721202  0.69917342  0.62136594    -0.06600
C470        C  0.17277077  0.75373746  0.61869751    -0.17700
C471        C  0.16470735  0.78288998  0.58823647     0.10600
C472        C  0.15061835  0.75695340  0.56007306    -0.06500
C473        C  0.14426982  0.70294483  0.56345245    -0.17800
C474        C  0.15186350  0.67417064  0.59400144     0.10600
S475        S  0.17412353  0.85199142  0.58611465    -0.32700
S476        S  0.13994942  0.60670110  0.59719957    -0.32700
H477        H  0.13722068  0.60632253  0.63497406     0.28600
H478        H  0.17955009  0.85225991  0.54882753     0.28600
H479        H  0.18433266  0.77326296  0.63983696     0.19200
H480        H  0.13255331  0.68330520  0.54252134     0.19200
C481        C  0.14136297  0.76142027  0.93012344    -0.06600
C482        C  0.14880663  0.79130615  0.89967690    -0.17700
C483        C  0.15701951  0.76612624  0.86758269     0.10600
C484        C  0.15843078  0.70991130  0.86633777    -0.06500
C485        C  0.14854616  0.68067326  0.89584745    -0.17800
C486        C  0.13964961  0.70564698  0.92728888     0.10600
S487        S  0.16766966  0.80761618  0.83063126    -0.32700
S488        S  0.12624990  0.66382959  0.96266982    -0.32700
H489        H  0.10707935  0.70166104  0.97582136     0.28600
H490        H  0.14831235  0.78585135  0.80661304     0.28600
H491        H  0.14945042  0.83429809  0.90140651     0.19200
H492        H  0.14819158  0.63760049  0.89467739     0.19200
C493        C  0.38194251  0.80111802  0.49881549    -0.06600
C494        C  0.38036012  0.83550401  0.96675516    -0.17700
C495        C  0.39637136  0.88143536  0.96591025     0.10600
C496        C  0.41402605  0.89450570  0.49886371    -0.06500
C497        C  0.41780908  0.85569621  0.52566221    -0.17800
C498        C  0.40245762  0.80868089  0.52552350     0.10600
S499        S  0.39177920  0.92594083  0.92816371    -0.32700
S500        S  0.41081475  0.75951947  0.55926223    -0.32700
H501        H  0.40633206  0.71566927  0.53652397     0.28600
H502        H  0.41900689  0.94530203  0.92807707     0.28600
H503        H  0.36529906  0.82969152  0.94554101     0.19200
H504        H  0.43286959  0.86213582  0.54680631     0.19200
C505        C  0.29405365  0.63657159  0.62743784    -0.06600
C506        C  0.30304066  0.68946471  0.62732480    -0.17700
C507        C  0.31566515  0.71153933  0.59681675     0.10600
C508        C  0.32046817  0.67948467  0.56602658    -0.06500
C509        C  0.31278196  0.62578313  0.56700710    -0.17800
C510        C  0.29988536  0.60396054  0.59728146     0.10600
S511        S  0.32236598  0.78189093  0.59777154    -0.32700
S512        S  0.29160654  0.53419266  0.59574566    -0.32700
H513        H  0.29477601  0.52540976  0.63298366     0.28600
H514        H  0.31211670  0.79155144  0.56286020     0.28600
H515        H  0.29837954  0.71490560  0.65018343     0.19200
H516        H  0.31670645  0.60054652  0.54381894     0.22100
C517        C  0.31481853  0.68727518  0.93356953    -0.06600
C518        C  0.28592989  0.69334233  0.93415929    -0.17700
C519        C  0.27000766  0.68143338  0.90397176     0.10600
C520        C  0.28306981  0.66036939  0.87290288    -0.06500
C521        C  0.31212320  0.65647233  0.87176038    -0.17800
C522        C  0.32813971  0.66976514  0.90174690     0.10600
S523        S  0.23338035  0.69624920  0.90632559    -0.32700
S524        S  0.36519137  0.66107332  0.89820980    -0.32700
H525        H  0.36935601  0.64564541  0.93425420     0.28600
H526        H  0.23088328  0.71065975  0.86978458     0.28600
H527        H  0.27573359  0.70873511  0.95811730     0.19200
H528        H  0.32236265  0.64070213  0.84795454     0.19200
C529        C  0.86499655  0.74921399  0.99846935     0.79800
N530        N  0.85120622  0.73619287  0.47015193    -0.78600
C531        C  0.83339349  0.69495126  0.47097548     0.82200
N532        N  0.82647833  0.67345002  0.50328848    -0.78500
C533        C  0.83911867  0.68878716  0.03340659     0.82300
N534        N  0.85764132  0.72891925  0.03109736    -0.80200
C535        C  0.62501892  0.86273304  0.99844596     0.79800
N536        N  0.63023105  0.84156368  0.46579970    -0.78600
C537        C  0.64944294  0.80241493  0.46194632     0.82200
N538        N  0.66087271  0.77968687  0.49154745    -0.78500
C539        C  0.65505089  0.79881878  0.02436281     0.82300
N540        N  0.63610653  0.83878611  0.02806830    -0.80200
C541        C  0.80404758  0.27019450  0.00054481     0.79800
N542        N  0.79541689  0.29875883  0.47110505    -0.78600
C543        C  0.77607845  0.33822573  0.47453026     0.82200
N544        N  0.76649105  0.35166057  0.50774695    -0.78500
C545        C  0.77593939  0.32480286  0.03723521     0.82300
N546        N  0.79478201  0.28512063  0.03360594    -0.80200
N547        N  0.97221402  0.98420467  0.00036836    -0.37100
N548        N  0.91994054  0.04171589  0.99196526    -0.57600
N549        N  0.94968883  0.14150031  0.99968684    -0.37100
N550        N  0.50628077  0.08203824  0.00172227    -0.57600
C551        C  0.95528947  0.94464325  0.98998710     0.26500
C552        C  0.99851511  0.96687787  0.99525809     0.26500
C553        C  0.92441777  0.15901769  0.98932212     0.26500
C554        C  0.96767746  0.18137411  0.99361015     0.26500
C555        C  0.91028903  0.99220679  0.99756553     0.35100
C556        C  0.89831430  0.07520582  0.99739817     0.35100
C557        C  0.52717461  0.04842792  0.01025422     0.35100
C558        C  0.51545748  0.13140845  0.00888582     0.35100
C559        C  0.97099276  0.90145036  0.97834557    -0.22400
C560        C  0.99832049  0.91547759  0.98171479    -0.22400
C561        C  0.92620861  0.21091689  0.97698750    -0.22400
C562        C  0.95359170  0.22495759  0.97948425    -0.22400
C563        C  0.88230916  0.99416188  0.00607689    -0.23400
C564        C  0.87469966  0.04691689  0.00595399    -0.23400
C565        C  0.54981980  0.07647243  0.02264010    -0.23400
C566        C  0.54236240  0.12921805  0.02180024    -0.23400
C567        C  0.92613644  0.94522107  0.99310226    -0.18800
C568        C  0.52679575  0.99317367  0.00433567    -0.18800
C569        C  0.50066033  0.17852595  0.00090861    -0.18800
C570        C  0.89948867  0.13085515  0.99343567    -0.18800
H571        H  0.96352925  0.86353417  0.96881662     0.14100
H572        H  0.51964069  0.88853620  0.97524380     0.14100
H573        H  0.90946754  0.23613149  0.96743432     0.14100
H574        H  0.96207325  0.26313300  0.97210712     0.14100
H575        H  0.86879675  0.96105888  0.01167241     0.12400
H576        H  0.85416918  0.06263259  0.01148386     0.12400
H577        H  0.56971700  0.06059990  0.03099829     0.12400
H578        H  0.55535171  0.16222001  0.02933687     0.12400
H579        H  0.96615459  0.01958040  0.01253414     0.25700
H580        H  0.95400008  0.10557835  0.01231982     0.25700
C581        C  0.56591291  0.36981564  0.99778837     0.79800
N582        N  0.57730230  0.38680721  0.46435192    -0.78600
C583        C  0.59795886  0.42269512  0.46365056     0.82200
N584        N  0.60754158  0.44277328  0.49498759    -0.78500
C585        C  0.59622595  0.42809877  0.02786627     0.82300
N586        N  0.57664541  0.38949499  0.02904516    -0.80200
O587        O  0.77943148  0.64014077  0.31416344    -0.75800
O588        O  0.74656835  0.60786485  0.35178823    -0.54700
C589        C  0.76932592  0.63187829  0.34593204     0.78000
O590        O  0.68030903  0.69093017  0.17956120    -0.60400
O591        O  0.70099153  0.63012673  0.14238031    -0.53400
C592        C  0.68694633  0.67302637  0.14814852     0.70000
O593        O  0.67815159  0.70600012  0.30103173    -0.74900
O594        O  0.69101657  0.64770301  0.34530412    -0.55500
C595        C  0.68098443  0.69220794  0.33423430     0.76000
O596        O  0.78815345  0.62650554  0.19210392    -0.60100
O597        O  0.75997858  0.58998280  0.14964056    -0.53200
C598        C  0.78228450  0.61339092  0.15940138     0.72600
Zr599      Zr  0.76707220  0.61655865  0.25194015     2.54700
O600        O  0.78316779  0.70793613  0.24949520    -0.80600
O601        O  0.81427439  0.58298448  0.25861351    -0.94000
Zr602      Zr  0.68826060  0.66611709  0.24234401     2.64700
O603        O  0.70458759  0.75718784  0.23731155    -0.99000
O604        O  0.64026897  0.69662890  0.24079481    -0.81100
O605        O  0.72577126  0.64535460  0.28128028    -0.84400
O606        O  0.72998903  0.64000108  0.21273814    -2.19100
O607        O  0.75269644  0.42596397  0.19743463    -0.67800
O608        O  0.73737174  0.48140598  0.15272092    -0.52400
C609        C  0.74835688  0.43793656  0.16425534     0.71000
O610        O  0.64628398  0.49012392  0.30481149    -0.60700
O611        O  0.67277210  0.53171337  0.34688275    -0.52700
C612        C  0.65280073  0.50148491  0.33753947     0.72800
O613        O  0.64960141  0.49358503  0.18292554    -0.72100
O614        O  0.68313451  0.52233880  0.14476053    -0.50800
C615        C  0.65997751  0.49957817  0.15111825     0.74100
O616        O  0.74520030  0.43794069  0.31850007    -0.67400
O617        O  0.72731585  0.50218342  0.35530965    -0.54600
C618        C  0.73896705  0.45675721  0.34984273     0.72500
Zr619      Zr  0.74135067  0.46578168  0.25539702     2.77500
O620        O  0.72449718  0.37498068  0.25855128    -0.98200
O621        O  0.78914882  0.43515141  0.26103350    -0.79000
Zr622      Zr  0.66262916  0.51584128  0.24492530     2.70100
O623        O  0.64286314  0.42732892  0.24187822    -0.80300
O624        O  0.61643155  0.55529780  0.24315828    -0.99300
Zr625      Zr  0.71073582  0.57119010  0.31542281     2.21500
Zr626      Zr  0.71906759  0.56053632  0.18115070     2.11100
O627        O  0.70399399  0.48707439  0.21623009    -2.48000
O628        O  0.69964900  0.49228632  0.28402706    -0.80100
O629        O  0.75696296  0.53780207  0.21925629    -0.72200
O630        O  0.67239318  0.59412757  0.27819291    -2.33200
O631        O  0.75290871  0.54347882  0.28782970    -2.29400
O632        O  0.67708361  0.58864054  0.20907798    -0.74000
H633        H  0.73576944  0.66753707  0.19625928     0.78000
H634        H  0.65648888  0.60463720  0.29245675     0.79100
H635        H  0.69979074  0.45681184  0.20130306     0.81300
H636        H  0.76688106  0.53513695  0.30555164     0.78900
H637        H  0.62934321  0.66379177  0.23816588     0.41900
H638        H  0.61538139  0.57262951  0.21921537     0.40900
H639        H  0.65818734  0.40324990  0.24923135     0.40600
H640        H  0.71153991  0.37175846  0.23804356     0.38500
H641        H  0.79965360  0.46741068  0.26736600     0.41700
H642        H  0.81433971  0.56388687  0.28196104     0.36400
H643        H  0.76705354  0.72951468  0.25759890     0.42600
H644        H  0.71342456  0.75935535  0.21323770     0.39000
H645        H  0.74064742  0.35253426  0.25174971     0.43900
H646        H  0.82545517  0.61511174  0.26305546     0.42600
H647        H  0.68746653  0.77895556  0.23511076     0.42800
H648        H  0.60389832  0.52450830  0.24120470     0.43100
C649        C  0.64401026  0.47950676  0.11962611    -0.06600
C650        C  0.61521821  0.47198570  0.12331055    -0.17700
C651        C  0.59882641  0.45599878  0.09412133     0.10600
C652        C  0.61142832  0.44525097  0.06052034    -0.06500
C653        C  0.64014685  0.45173800  0.05707160    -0.17800
C654        C  0.65656165  0.46896269  0.08563977     0.10600
S655        S  0.56194331  0.45370715  0.10098659    -0.32700
S656        S  0.69335606  0.47679779  0.07718085    -0.32700
H657        H  0.69423055  0.45611264  0.04196074     0.28600
H658        H  0.55511700  0.47294740  0.06647200     0.28600
H659        H  0.60511242  0.48063363  0.14879345     0.19200
H660        H  0.64992555  0.44331884  0.03149116     0.19200
C661        C  0.61187578  0.43604848  0.42955743    -0.06600
C662        C  0.59588895  0.45202283  0.39981000    -0.17700
C663        C  0.60846348  0.47250755  0.36871612     0.10600
C664        C  0.63761511  0.47646244  0.36734624    -0.06500
C665        C  0.65349581  0.45696792  0.39616032    -0.17800
C666        C  0.64107067  0.43608631  0.42682517     0.10600
S667        S  0.58623843  0.49590957  0.33299304    -0.32700
S668        S  0.66384024  0.40862193  0.46072661    -0.32700
H669        H  0.64536358  0.36947339  0.47274007     0.28600
H670        H  0.60182435  0.54154817  0.32538509     0.28600
H671        H  0.57348108  0.45113583  0.40152646     0.19200
H672        H  0.67594254  0.45776807  0.39469952     0.19200
C673        C  0.51627810  0.22896573  0.99849995    -0.06600
C674        C  0.51088699  0.26918817  0.02383605    -0.17700
C675        C  0.52593315  0.31665843  0.02352167     0.10600
C676        C  0.54755176  0.32305424  0.99820726    -0.06500
C677        C  0.55203026  0.28439637  0.47074315    -0.17800
C678        C  0.53616525  0.23840707  0.47040749     0.10600
S679        S  0.51614448  0.36970356  0.05383816    -0.32700
S680        S  0.54292639  0.19054556  0.43517966    -0.32700
H681        H  0.01321819  0.17359970  0.42910183     0.28600
H682        H  0.49391924  0.34354266  0.07057045     0.28600
H683        H  0.49474858  0.26323715  0.04372463     0.19200
H684        H  0.56849842  0.28825214  0.45102292     0.19200
C685        C  0.87359503  0.16243560  0.99633608    -0.06600
C686        C  0.85683953  0.16773193  0.46821372    -0.17700
C687        C  0.83333140  0.20078924  0.46847003     0.10600
C688        C  0.82688718  0.23052320  0.99825754    -0.06500
C689        C  0.84498829  0.22672100  0.02787157    -0.17800
C690        C  0.86795933  0.19287823  0.02738858     0.10600
S691        S  0.81091548  0.19816932  0.42976997    -0.32700
S692        S  0.88986526  0.19185290  0.06682005    -0.32700
H693        H  0.89918938  0.13901974  0.06311437     0.28600
H694        H  0.78624778  0.20102110  0.45000518     0.28600
H695        H  0.86135573  0.14358415  0.44468251     0.19200
H696        H  0.84163660  0.25111698  0.05158523     0.19200
C697        C  0.76978630  0.34642211  0.07288142    -0.06600
C698        C  0.74230928  0.34705613  0.08501675    -0.17700
C699        C  0.73528640  0.37191456  0.11744083     0.10600
C700        C  0.75590023  0.39874500  0.13695276    -0.06500
C701        C  0.78360526  0.39495248  0.12620886    -0.17800
C702        C  0.79078121  0.36938785  0.09411798     0.10600
S703        S  0.69983859  0.36833265  0.13270583    -0.32700
S704        S  0.82661760  0.37152519  0.08026836    -0.32700
H705        H  0.82114961  0.38135006  0.04362149     0.28600
H706        H  0.70599376  0.37219246  0.16960228     0.28600
H707        H  0.72630053  0.32844349  0.06908214     0.19200
H708        H  0.79942577  0.41522278  0.14150174     0.19200
C709        C  0.76681402  0.36890777  0.44279829    -0.06600
C710        C  0.75711680  0.34147176  0.41251949    -0.17700
C711        C  0.74640719  0.36886303  0.38265317     0.10600
C712        C  0.74670579  0.42513295  0.38207967    -0.06500
C713        C  0.75602326  0.45241052  0.41270875    -0.17800
C714        C  0.76609381  0.42514280  0.44284883     0.10600
S715        S  0.73088166  0.32982131  0.34747555    -0.32700
S716        S  0.77890829  0.46470440  0.47971105    -0.32700
H717        H  0.80122826  0.43045277  0.48791877     0.28600
H718        H  0.70947317  0.36668274  0.34019690     0.28600
H719        H  0.75684523  0.29837849  0.41274734     0.19200
H720        H  0.75640589  0.49548900  0.41274457     0.19200
C721        C  0.55346405  0.96387194  0.00537187    -0.06600
C722        C  0.57037305  0.96825976  0.47772093    -0.17700
C723        C  0.59443263  0.93720828  0.47538318     0.10600
C724        C  0.60247174  0.90258492  0.00221576    -0.06500
C725        C  0.58455089  0.89887290  0.03204919    -0.17800
C726        C  0.56040612  0.92978066  0.03417102     0.10600
S727        S  0.61667857  0.94877090  0.43709866    -0.32700
S728        S  0.53897134  0.92321682  0.07381469    -0.32700
H729        H  0.52821901  0.97537539  0.07333432     0.28600
H730        H  0.64141802  0.94274946  0.45677324     0.28600
H731        H  0.56514096  0.99516594  0.45587637     0.19200
H732        H  0.58887345  0.87062654  0.05342032     0.19200
C733        C  0.67818036  0.70478188  0.11648470    -0.06600
C734        C  0.67953827  0.76053661  0.11837078    -0.17700
C735        C  0.67301316  0.79243796  0.08852658     0.10600
C736        C  0.66450116  0.76827113  0.05607295    -0.06500
C737        C  0.66319607  0.71266882  0.05419951    -0.17800
C738        C  0.66938782  0.68090580  0.08402025     0.10600
S739        S  0.67718789  0.86327105  0.09315808    -0.32700
S740        S  0.66360938  0.61065130  0.07947000    -0.32700
H741        H  0.65215041  0.60499404  0.11415996     0.28600
H742        H  0.68467773  0.87244505  0.05702642     0.28600
H743        H  0.68648676  0.77938627  0.14297649     0.19200
H744        H  0.65607431  0.69377517  0.02968308     0.19200
C745        C  0.65636425  0.78135448  0.42616380    -0.06600
C746        C  0.68424148  0.78050059  0.41553514    -0.17700
C747        C  0.69241931  0.75607543  0.38337734     0.10600
C748        C  0.67249625  0.73003245  0.36220957    -0.06500
C749        C  0.64442699  0.73341760  0.37167487    -0.17800
C750        C  0.63609892  0.75907096  0.40342001     0.10600
S751        S  0.72857106  0.75854152  0.37100872    -0.32700
S752        S  0.59967868  0.75873686  0.41452279    -0.32700
H753        H  0.60322616  0.75034609  0.45172503     0.28600
H754        H  0.72447959  0.75359693  0.33363239     0.28600
H755        H  0.69974889  0.79859265  0.43256073     0.19200
H756        H  0.62913022  0.71334437  0.35537704     0.19200
C757        C  0.88306327  0.79641094  0.99596983    -0.06600
C758        C  0.87622027  0.83929720  0.47177304    -0.17700
C759        C  0.89142325  0.88612430  0.46976404     0.10600
C760        C  0.91169022  0.89352236  0.99248354    -0.06500
C761        C  0.91605296  0.85837274  0.02128582    -0.17800
C762        C  0.90257003  0.80956693  0.02289940     0.10600
S763        S  0.88462003  0.92996956  0.43217608    -0.32700
S764        S  0.91224664  0.76540918  0.05912524    -0.32700
H765        H  0.91165456  0.71927546  0.03767431     0.28600
H766        H  0.91124985  0.95197194  0.43050544     0.28600
H767        H  0.86047415  0.83231892  0.45158894     0.19200
H768        H  0.93038122  0.86891923  0.04252037     0.19200
C769        C  0.80182567  0.62848226  0.13044908    -0.06600
C770        C  0.81192287  0.68059873  0.12996297    -0.17700
C771        C  0.82502079  0.70125758  0.09931216     0.10600
C772        C  0.82906693  0.66849386  0.06861721    -0.06500
C773        C  0.82088412  0.61508216  0.07040770    -0.17800
C774        C  0.80751056  0.59476891  0.10081248     0.10600
S775        S  0.83318390  0.77098937  0.10010160    -0.32700
S776        S  0.79804114  0.52562474  0.09984523    -0.32700
H777        H  0.80014138  0.51787812  0.13731185     0.28600
H778        H  0.82011770  0.78199181  0.06700602     0.28600
H779        H  0.80759442  0.70682471  0.15251564     0.19200
H780        H  0.82438393  0.58903666  0.04752231     0.22100
C781        C  0.81843487  0.67799489  0.43808690    -0.06600
C782        C  0.79215484  0.65590055  0.44297790    -0.17700
C783        C  0.77532667  0.64271471  0.41403459     0.10600
C784        C  0.78515668  0.64975770  0.37812629    -0.06500
C785        C  0.81158001  0.67194393  0.37316271    -0.17800
C786        C  0.82826759  0.68590729  0.40248823     0.10600
S787        S  0.74151691  0.61814830  0.42623961    -0.32700
S788        S  0.86211661  0.71162760  0.39226579    -0.32700
H789        H  0.87563082  0.68175763  0.41918889     0.28600
H790        H  0.72713595  0.65567837  0.40520133     0.28600
H791        H  0.78393444  0.65039888  0.46993075     0.19200
H792        H  0.81970587  0.67756995  0.34618485     0.19200
C793        C  0.86269412  0.75483754  0.50099796     0.79800
N794        N  0.85305730  0.72978913  0.96813824    -0.78600
C795        C  0.83479535  0.68932588  0.96999831     0.82200
N796        N  0.82794329  0.66923259  0.00272846    -0.78500
C797        C  0.83707351  0.69235557  0.53450598     0.82300
N798        N  0.85527832  0.73314280  0.53318398    -0.80200
C799        C  0.62283162  0.85925786  0.49906319     0.79800
N800        N  0.63235131  0.84511172  0.96515795    -0.78600
C801        C  0.65127055  0.80548571  0.96127014     0.82200
N802        N  0.66247297  0.78223515  0.99086530    -0.78500
C803        C  0.65333773  0.79621636  0.52499381     0.82300
N804        N  0.63412861  0.83571183  0.52867995    -0.80200
C805        C  0.80481258  0.27244014  0.50082836     0.79800
N806        N  0.79463834  0.29663097  0.97087734    -0.78600
C807        C  0.77559576  0.33660562  0.97442140     0.82200
N808        N  0.76626711  0.35029818  0.00767338    -0.78500
C809        C  0.77608507  0.32605724  0.53735940     0.82300
N810        N  0.79517606  0.28683438  0.53380230    -0.80200
N811        N  0.97268024  0.98682149  0.50237519    -0.37100
N812        N  0.92061094  0.04471642  0.49579237    -0.57600
N813        N  0.95086874  0.14432689  0.49805015    -0.37100
N814        N  0.50596475  0.08388729  0.50312452    -0.57600
C815        C  0.95528613  0.94712871  0.49351517     0.26500
C816        C  0.99872281  0.96909149  0.49588415     0.26500
C817        C  0.92527862  0.16154570  0.48892003     0.26500
C818        C  0.96868879  0.18345522  0.48948621     0.26500
C819        C  0.91090238  0.99575085  0.50302635     0.35100
C820        C  0.89931999  0.07881435  0.50150205     0.35100
C821        C  0.52692237  0.05048073  0.51187700     0.35100
C822        C  0.51526386  0.13357130  0.50900572     0.35100
C823        C  0.97047113  0.90349275  0.48150262    -0.22400
C824        C  0.99792867  0.91729563  0.48313562    -0.22400
C825        C  0.92672357  0.21250008  0.47479468    -0.22400
C826        C  0.95421324  0.22625404  0.47495220    -0.22400
C827        C  0.88322846  0.99865816  0.51302917    -0.23400
C828        C  0.87585678  0.05147783  0.51200273    -0.23400
C829        C  0.54976453  0.07896419  0.52311940    -0.23400
C830        C  0.54233720  0.13176949  0.52138043    -0.23400
C831        C  0.92620701  0.94831119  0.49793856    -0.18800
C832        C  0.52634592  0.99492980  0.50705664    -0.18800
C833        C  0.50036943  0.18037124  0.50020591    -0.18800
C834        C  0.90050444  0.13399730  0.49552211    -0.18800
H835        H  0.96260623  0.86547700  0.47276120     0.14100
H836        H  0.51866211  0.88992677  0.47881155     0.14100
H837        H  0.90970383  0.23730067  0.46558592     0.14100
H838        H  0.96253321  0.26373685  0.46581025     0.14100
H839        H  0.86971032  0.96609631  0.51993165     0.12400
H840        H  0.85554242  0.06784391  0.51801754     0.12400
H841        H  0.56976317  0.06332339  0.53126736     0.12400
H842        H  0.55547796  0.16502929  0.52787729     0.12400
H843        H  0.96723779  0.02274802  0.51431448     0.25700
H844        H  0.95558069  0.10928368  0.51156002     0.25700
C845        C  0.56635090  0.37051071  0.49626007     0.79800
N846        N  0.57564053  0.38758063  0.96553487    -0.78600
C847        C  0.59538638  0.42532218  0.96432448     0.82200
N848        N  0.60540870  0.44538114  0.99541400    -0.78500
C849        C  0.59707190  0.42703924  0.52721176     0.82300
N850        N  0.57664281  0.39004471  0.52780714    -0.80200
O851        O  0.77859205  0.63679774  0.81469684    -0.75800
O852        O  0.74635205  0.60349102  0.85290065    -0.54700
C853        C  0.76886649  0.62808943  0.84662507     0.78000
O854        O  0.68062015  0.69080216  0.68012407    -0.60400
O855        O  0.69990357  0.62838257  0.64297100    -0.53400
C856        C  0.68645288  0.67197716  0.64872795     0.70000
O857        O  0.67920819  0.70776849  0.80066188    -0.74900
O858        O  0.69182553  0.64956870  0.84512332    -0.55500
C859        C  0.68221558  0.69438412  0.83387069     0.76000
O860        O  0.78742114  0.62271277  0.69237646    -0.60100
O861        O  0.75855707  0.58825961  0.64989167    -0.53200
C862        C  0.78110193  0.61088834  0.65959611     0.72600
Zr863      Zr  0.76686998  0.61212239  0.75243397     2.54700
O864        O  0.78601544  0.70122136  0.74996383    -0.80600
O865        O  0.81298095  0.57298410  0.75863113    -0.94000
Zr866      Zr  0.68902593  0.66626497  0.74269067     2.64700
O867        O  0.70900726  0.75452131  0.73720402    -0.99000
O868        O  0.64216685  0.70269314  0.74028022    -0.81100
O869        O  0.72606697  0.64326543  0.78178143    -0.84400
O870        O  0.73019170  0.63753602  0.71315258    -2.19100
O871        O  0.74985870  0.42283455  0.69820618    -0.67800
O872        O  0.73571587  0.47930716  0.65344313    -0.52400
C873        C  0.74613260  0.43534385  0.66499647     0.71000
O874        O  0.64471456  0.49333288  0.80644717    -0.60700
O875        O  0.67130240  0.53476102  0.84849137    -0.52700
C876        C  0.65110229  0.50510820  0.83917998     0.72800
O877        O  0.64816145  0.49233453  0.68430845    -0.72100
O878        O  0.68139212  0.52212392  0.64610119    -0.50800
C879        C  0.65852349  0.49850051  0.65248917     0.74100
O880        O  0.74321615  0.43526756  0.81878097    -0.67400
O881        O  0.72489977  0.49901011  0.85555605    -0.54600
C882        C  0.73668993  0.45365410  0.85006634     0.72500
Zr883      Zr  0.73900774  0.46335054  0.75606776     2.77500
O884        O  0.72224878  0.37262894  0.76064210    -0.98200
O885        O  0.78685905  0.43303691  0.76168941    -0.79000
Zr886      Zr  0.66086588  0.51763467  0.74601617     2.70100
O887        O  0.63717986  0.43276245  0.74356092    -0.80300
O888        O  0.61622452  0.56336166  0.74421467    -0.99300
Zr889      Zr  0.70986575  0.57031383  0.81623405     2.21500
Zr890      Zr  0.71785691  0.55880924  0.68188688     2.11100
O891        O  0.70178115  0.48626893  0.71718591    -2.48000
O892        O  0.69765138  0.49194205  0.78486568    -0.80100
O893        O  0.75555775  0.53414870  0.71968727    -0.72200
O894        O  0.67196164  0.59555292  0.77889912    -2.33200
O895        O  0.75164180  0.54027151  0.78859302    -2.29400
O896        O  0.67635574  0.58929596  0.70984398    -0.74000
H897        H  0.73634176  0.66453298  0.69650547     0.78000
H898        H  0.65625384  0.60719937  0.79313552     0.79100
H899        H  0.69726714  0.45600386  0.70238361     0.81300
H900        H  0.76557882  0.53123664  0.80621822     0.78900
H901        H  0.63024995  0.67137212  0.73659359     0.41900
H902        H  0.61297046  0.57036511  0.71828441     0.40900
H903        H  0.65165711  0.40618800  0.74982412     0.40600
H904        H  0.71343392  0.36526893  0.73712742     0.38500
H905        H  0.79792858  0.46193468  0.75090790     0.41700
H906        H  0.81622064  0.57076340  0.78494045     0.36400
H907        H  0.77099708  0.72451571  0.75935160     0.42600
H908        H  0.72105163  0.75278080  0.71558153     0.39000
H909        H  0.73926579  0.35031548  0.76068938     0.43900
H910        H  0.82569540  0.60105821  0.75019599     0.42600
H911        H  0.69329149  0.77768502  0.72989615     0.42800
H912        H  0.60263940  0.53564022  0.75059733     0.43100
C913        C  0.64310512  0.47764048  0.62081957    -0.06600
C914        C  0.61443927  0.46855686  0.62393899    -0.17700
C915        C  0.59855050  0.45285042  0.59419051     0.10600
C916        C  0.61157884  0.44412552  0.56051606    -0.06500
C917        C  0.64025599  0.45173471  0.55780616    -0.17800
C918        C  0.65613370  0.46854136  0.58694131     0.10600
S919        S  0.56173105  0.44817258  0.60067527    -0.32700
S920        S  0.69305641  0.47636392  0.57947052    -0.32700
H921        H  0.69298103  0.47277917  0.54162537     0.28600
H922        H  0.55493923  0.47001101  0.56686709     0.28600
H923        H  0.60402165  0.47582570  0.64940700     0.19200
H924        H  0.65055708  0.44384085  0.53248247     0.19200
C925        C  0.60909060  0.43898904  0.93019072    -0.06600
C926        C  0.59332301  0.45748491  0.90092164    -0.17700
C927        C  0.60627580  0.47854207  0.87022000     0.10600
C928        C  0.63549722  0.48093959  0.86895557    -0.06500
C929        C  0.65105411  0.45959768  0.89745038    -0.17800
C930        C  0.63825998  0.43749522  0.92742827     0.10600
S931        S  0.58453858  0.50438368  0.83475127    -0.32700
S932        S  0.66043380  0.40594067  0.96037713    -0.32700
H933        H  0.64121069  0.36711552  0.97082211     0.28600
H934        H  0.60120289  0.54861462  0.82719816     0.28600
H935        H  0.57090832  0.45786442  0.90269114     0.19200
H936        H  0.67351024  0.45927588  0.89606548     0.19200
C937        C  0.51572199  0.23108657  0.49710443    -0.06600
C938        C  0.50995795  0.27231559  0.52159915    -0.17700
C939        C  0.52513411  0.31967460  0.52092031     0.10600
C940        C  0.54723485  0.32487287  0.49619370    -0.06500
C941        C  0.55238782  0.28310034  0.97239587    -0.17800
C942        C  0.53671784  0.23684860  0.97182579     0.10600
S943        S  0.51499040  0.37402944  0.54994767    -0.32700
S944        S  0.54386407  0.18937543  0.93643534    -0.32700
H945        H  0.01137097  0.17113692  0.93447590     0.28600
H946        H  0.49294253  0.34819671  0.56729423     0.28600
H947        H  0.49352802  0.26716668  0.54118846     0.19200
H948        H  0.56867178  0.28770742  0.95249251     0.19200
C949        C  0.87470116  0.16567742  0.49791439    -0.06600
C950        C  0.85541016  0.16482915  0.96694235    -0.17700
C951        C  0.83190564  0.19797189  0.96773147     0.10600
C952        C  0.82797465  0.23350869  0.49881229    -0.06500
C953        C  0.84590706  0.23032466  0.52865431    -0.17800
C954        C  0.86887518  0.19650260  0.52867806     0.10600
S955        S  0.80903188  0.19571786  0.92945942    -0.32700
S956        S  0.89050459  0.19566017  0.56833584    -0.32700
H957        H  0.89832838  0.14180097  0.56586530     0.28600
H958        H  0.78458920  0.19914606  0.95013063     0.28600
H959        H  0.85968031  0.14094531  0.94321601     0.19200
H960        H  0.84234539  0.25498609  0.55219160     0.19200
C961        C  0.76937971  0.34670371  0.57313920    -0.06600
C962        C  0.74183824  0.34543670  0.58501352    -0.17700
C963        C  0.73421962  0.36910850  0.61764958     0.10600
C964        C  0.75428126  0.39667610  0.63763887    -0.06500
C965        C  0.78209730  0.39452832  0.62722100    -0.17800
C966        C  0.78990988  0.36993179  0.59503647     0.10600
S967        S  0.69873811  0.36329525  0.63243133    -0.32700
S968        S  0.82597782  0.37315279  0.58231268    -0.32700
H969        H  0.82137455  0.38096962  0.54527150     0.28600
H970        H  0.70430757  0.36877815  0.66940021     0.28600
H971        H  0.72623624  0.32627197  0.56870439     0.19200
H972        H  0.79750843  0.41523871  0.64295240     0.19200
C973        C  0.76598414  0.36693454  0.94271849    -0.06600
C974        C  0.75802151  0.33907947  0.91177984    -0.17700
C975        C  0.74689639  0.36569024  0.88189077     0.10600
C976        C  0.74462742  0.42193173  0.88219939    -0.06500
C977        C  0.75229312  0.44953389  0.91347337    -0.17800
C978        C  0.76313471  0.42296371  0.94339833     0.10600
S979        S  0.73457827  0.32513456  0.84536177    -0.32700
S980        S  0.77450495  0.46348770  0.98058382    -0.32700
H981        H  0.79826915  0.43251890  0.98788720     0.28600
H982        H  0.71146261  0.35780170  0.83785484     0.28600
H983        H  0.75954316  0.29604769  0.91139073     0.19200
H984        H  0.75100997  0.49257843  0.91413353     0.19200
C985        C  0.55289609  0.96504332  0.50776515    -0.06600
C986        C  0.57190818  0.96985712  0.97650905    -0.17700
C987        C  0.59662945  0.94068932  0.97504543     0.10600
C988        C  0.60054373  0.89980354  0.50292191    -0.06500
C989        C  0.58354052  0.89854967  0.53379456    -0.17800
C990        C  0.56013545  0.93147698  0.53674459     0.10600
S991        S  0.61995585  0.95518538  0.93833640    -0.32700
S992        S  0.53999473  0.92830759  0.57770796    -0.32700
H993        H  0.53042491  0.98127866  0.57666095     0.28600
H994        H  0.64420046  0.94708171  0.95870474     0.28600
H995        H  0.56695704  0.99752735  0.95499145     0.19200
H996        H  0.58807258  0.87095801  0.55548567     0.19200
C997        C  0.67733686  0.70338432  0.61710153    -0.06600
C998        C  0.67822267  0.75919729  0.61890511    -0.17700
C999        C  0.67122219  0.79074741  0.58910397     0.10600
C1000       C  0.66305316  0.76613102  0.55668149    -0.06500
C1001       C  0.66213516  0.71050338  0.55490937    -0.17800
C1002       C  0.66837808  0.67912620  0.58486128     0.10600
S1003       S  0.67412377  0.86182205  0.59377323    -0.32700
S1004       S  0.66188709  0.60904320  0.58104013    -0.32700
H1005       H  0.65009549  0.60490161  0.61566253     0.28600
H1006       H  0.68241523  0.87104634  0.55793723     0.28600
H1007       H  0.68502757  0.77841041  0.64344844     0.19200
H1008       H  0.65503868  0.69130793  0.53048688     0.19200
C1009       C  0.65810876  0.78459902  0.92541557    -0.06600
C1010       C  0.68598151  0.78341957  0.91481005    -0.17700
C1011       C  0.69413676  0.75870569  0.88273783     0.10600
C1012       C  0.67409622  0.73291028  0.86157247    -0.06500
C1013       C  0.64600756  0.73728969  0.87076615    -0.17800
C1014       C  0.63775942  0.76291573  0.90253370     0.10600
S1015       S  0.73039330  0.76069311  0.87069228    -0.32700
S1016       S  0.60134856  0.76282330  0.91365137    -0.32700
H1017       H  0.60499643  0.75316978  0.95069952     0.28600
H1018       H  0.72716547  0.74946753  0.83383429     0.28600
H1019       H  0.70152907  0.80126962  0.93189134     0.19200
H1020       H  0.63061605  0.71765745  0.85436452     0.19200
C1021       C  0.88080548  0.80193931  0.49942090    -0.06600
C1022       C  0.87944483  0.83118438  0.96652805    -0.17700
C1023       C  0.89384577  0.87895638  0.96418980     0.10600
C1024       C  0.91105119  0.89728559  0.49681133    -0.06500
C1025       C  0.91613648  0.85968400  0.52398809    -0.17800
C1026       C  0.90179033  0.81171230  0.52508489     0.10600
S1027       S  0.88823600  0.91965741  0.92470427    -0.32700
S1028       S  0.91224741  0.76401607  0.55880621    -0.32700
H1029       H  0.90960232  0.71969449  0.53595051     0.28600
H1030       H  0.91399472  0.94520224  0.92519611     0.28600
H1031       H  0.86494049  0.82167621  0.94529022     0.19200
H1032       H  0.93166784  0.86762197  0.54429750     0.19200
C1033       C  0.80029647  0.62714310  0.63056780    -0.06600
C1034       C  0.81058146  0.67910840  0.63118964    -0.17700
C1035       C  0.82324845  0.70139354  0.60078551     0.10600
C1036       C  0.82689497  0.67032146  0.56921698    -0.06500
C1037       C  0.81840933  0.61697551  0.56976285    -0.17800
C1038       C  0.80533160  0.59511807  0.59991268     0.10600
S1039       S  0.83115034  0.77115969  0.60303544    -0.32700
S1040       S  0.79549852  0.52621863  0.59742179    -0.32700
H1041       H  0.79807912  0.51639650  0.63461331     0.28600
H1042       H  0.81735615  0.78355457  0.57065854     0.28600
H1043       H  0.80665011  0.70410433  0.65449142     0.19200
H1044       H  0.82150318  0.59216609  0.54616818     0.22100
C1045       C  0.81913626  0.67253733  0.93776496    -0.06600
C1046       C  0.79180223  0.65597202  0.94308857    -0.17700
C1047       C  0.77462071  0.64324457  0.91436706     0.10600
C1048       C  0.78501085  0.64599518  0.87844113    -0.06500
C1049       C  0.81242837  0.66300291  0.87312867    -0.17800
C1050       C  0.82961482  0.67555083  0.90219236     0.10600
S1051       S  0.73983439  0.62439523  0.92680014    -0.32700
S1052       S  0.86502849  0.69197400  0.89190798    -0.32700
H1053       H  0.87620946  0.66385644  0.92137154     0.28600
H1054       H  0.72685299  0.65841875  0.90198506     0.28600
H1055       H  0.78324297  0.65427289  0.97011331     0.19200
H1056       H  0.82103373  0.66481354  0.84614961     0.19200
loop_ 
_geom_bond_atom_site_label_1 
_geom_bond_atom_site_label_2 
_geom_bond_distance 
_geom_bond_site_symmetry_2 
_ccdc_geom_bond_type 
C1            N6   1.361   1_556  A
C1          N266   1.358       .  A
C1          C229   1.485       .  S
N2            C3   1.355       .  A
N2          C265   1.360       .  A
C3            N4   1.355       .  A
C3          C253   1.474       .  S
N4          C269   1.356       .  A
C5            N6   1.360       .  A
C5          N268   1.355   1_554  A
C5          C244   1.481       .  S
C7           N12   1.362       .  A
C7          N272   1.359   1_554  A
C7          C196   1.477       .  S
N8            C9   1.357       .  A
N8          C271   1.361       .  A
C9           N10   1.353       .  A
C9          C217   1.472       .  S
N10         C275   1.353       .  A
C11          N12   1.358       .  A
C11         N274   1.355   1_554  A
C11         C208   1.474       .  S
C13          N18   1.357       .  A
C13         N278   1.363   1_554  A
C13         C160   1.484   1_554  S
N14          C15   1.361       .  A
N14         C277   1.362       .  A
C15          N16   1.356       .  A
C15         C181   1.474       .  S
N16         C281   1.353       .  A
C17          N18   1.350       .  A
C17         N280   1.352       .  A
C17         C169   1.460       .  S
N19          C24   1.351   1_554  A
N19          C23   1.352   1_554  A
N19          H51   1.038   1_565  S
N20          C27   1.350   1_546  A
N20          C28   1.350   1_556  A
N21          C26   1.352   1_554  A
N21          C25   1.349   1_554  A
N21          H52   1.037       .  S
N22          C29   1.348       .  A
N22          C30   1.348       .  A
C23          C31   1.387       .  A
C23          C39   1.413       .  A
C24          C32   1.387       .  A
C24         C568   1.413   1_556  A
C25          C33   1.387       .  A
C25          C42   1.411       .  A
C26          C34   1.387       .  A
C26         C569   1.412   1_556  A
C27          C39   1.413   1_554  A
C27          C35   1.386       .  A
C28          C42   1.410   1_554  A
C28          C36   1.386       .  A
C29          C37   1.385       .  A
C29          C40   1.407   1_545  A
C30          C38   1.387       .  A
C30          C41   1.410   1_455  A
C31          C32   1.377       .  A
C31          H43   1.082       .  S
C32         H572   1.082       .  S
C33          C34   1.375       .  A
C33          H45   1.082       .  S
C34          H46   1.082       .  S
C35          C36   1.373   1_565  A
C35          H47   1.082       .  S
C36          H48   1.082       .  S
C37          C38   1.372       .  A
C37          H49   1.082       .  S
C38          H50   1.082       .  S
C39         C232   1.487       .  S
C40         C193   1.478       .  S
C40         C552   1.412   1_454  A
C41         C145   1.481   1_654  S
C41         C554   1.412   1_554  A
C42         C157   1.477       .  S
H44         C560   1.082   1_455  S
C53          N58   1.365   1_556  A
C53         N318   1.360       .  A
C53         C148   1.478       .  S
N54          C55   1.349       .  A
N54         C317   1.358       .  A
C55          N56   1.350       .  A
C55         C133   1.465       .  S
N56         C321   1.356       .  A
C57          N58   1.362       .  A
C57         N320   1.356   1_554  A
C57         C124   1.488       .  S
O59         Zr71   2.445       .  S
O59          C61   1.289       .  A
O60         Zr97   2.413       .  S
O60          C61   1.285       .  A
C61         C256   1.480       .  S
O62         Zr74   2.432       .  S
O62          C64   1.286       .  A
O63         Zr98   2.422       .  S
O63          C64   1.287       .  A
C64         C205   1.472       .  S
O65         Zr74   2.453       .  S
O65          C67   1.288       .  A
O66         Zr97   2.396       .  S
O66          C67   1.283       .  A
C67         C220   1.478       .  S
O68         Zr71   2.454       .  S
O68          C70   1.290       .  A
O69         Zr98   2.410       .  S
O69          C70   1.284       .  A
C70         C241   1.479       .  S
Zr71         O72   2.434       .  S
Zr71         O73   2.435       .  S
Zr71         O77   2.382       .  S
Zr71         O78   2.373       .  S
Zr71        O101   2.373       .  S
Zr71        O103   2.378       .  S
O72         H115   0.990       .  S
O73         H114   0.990       .  S
O73         H118   0.990       .  S
Zr74         O75   2.435       .  S
Zr74         O76   2.433       .  S
Zr74         O78   2.378       .  S
Zr74         O77   2.368       .  S
Zr74        O102   2.371       .  S
Zr74        O104   2.381       .  S
O75         H116   0.990       .  S
O75         H119   0.990       .  S
O76         H109   0.990       .  S
O77         Zr97   2.374       .  S
O78         Zr98   2.378       .  S
O78         H105   0.966       .  S
O79         Zr91   2.431       .  S
O79          C81   1.284       .  A
O80         Zr98   2.417       .  S
O80          C81   1.285       .  A
C81         C172   1.458       .  S
O82         Zr94   2.435       .  S
O82          C84   1.286       .  A
O83         Zr97   2.404       .  S
O83          C84   1.284       .  A
C84         C136   1.469       .  S
O85         Zr94   2.452       .  S
O85          C87   1.290       .  A
O86         Zr98   2.401       .  S
O86          C87   1.281       .  A
C87         C121   1.489       .  S
O88         Zr91   2.450       .  S
O88          C90   1.289       .  A
O89         Zr97   2.407       .  S
O89          C90   1.284       .  A
C90         C184   1.481       .  S
Zr91         O92   2.435       .  S
Zr91         O93   2.433       .  S
Zr91         O99   2.376       .  S
Zr91        O100   2.363       .  S
Zr91        O103   2.369       .  S
Zr91        O101   2.380       .  S
O92         H112   0.990       .  S
O92         H117   0.990       .  S
O93         H113   0.990       .  S
Zr94         O95   2.434       .  S
Zr94         O96   2.434       .  S
Zr94        O100   2.378       .  S
Zr94         O99   2.360       .  S
Zr94        O104   2.369       .  S
Zr94        O102   2.370       .  S
O95         H111   0.990       .  S
O96         H110   0.990       .  S
O96         H120   0.990       .  S
Zr97        O100   2.370       .  S
Zr97        O102   2.377       .  S
Zr97        O103   2.375       .  S
Zr98         O99   2.377       .  S
Zr98        O101   2.378       .  S
Zr98        O104   2.372       .  S
O99         H107   0.965       .  S
O102        H106   0.965       .  S
O103        H108   0.964       .  S
C121        C122   1.408       .  A
C121        C126   1.420       .  A
C122        C123   1.403       .  A
C122        H131   1.084       .  S
C123        C124   1.414       .  A
C123        S127   1.797       .  S
C124        C125   1.404       .  A
C125        C126   1.394       .  A
C125        H132   1.080       .  S
C126        S128   1.814       .  S
S127        H130   1.407       .  S
S128        H129   1.407       .  S
C133        C134   1.402       .  A
C133        C138   1.411       .  A
C134        C135   1.400       .  A
C134        H143   1.084       .  S
C135        C136   1.414       .  A
C135        S139   1.802       .  S
C136        C137   1.402       .  A
C137        C138   1.389       .  A
C137        H144   1.085       .  S
C138        S140   1.805       .  S
S139        H142   1.406       .  S
S140        H141   1.407       .  S
C145        C146   1.403   1_556  A
C145        C414   1.410       .  A
C146        C147   1.403       .  A
C146        H155   1.083   1_455  S
C147        C148   1.412   1_554  A
C147        S151   1.803       .  S
C148        C413   1.405       .  A
C149        C150   1.391       .  A
C149        C412   1.405       .  A
C149        H156   1.084       .  S
C150        C409   1.409       .  A
C150        S152   1.806       .  S
S151        H154   1.407   1_455  S
S152        H681   1.406       .  S
H153        S680   1.407       .  S
C157        C162   1.407   1_556  A
C157        C422   1.402       .  A
C158        C159   1.401       .  A
C158        C421   1.402       .  A
C158        H167   1.084       .  S
C159        C424   1.416       .  A
C159        S163   1.801       .  S
C160        C161   1.409   1_556  A
C160        C423   1.417       .  A
C161        C162   1.392       .  A
C161        H168   1.083       .  S
C162        S164   1.807       .  S
S163        H166   1.407       .  S
S164        H165   1.404       .  S
C169        C170   1.400       .  A
C169        C174   1.414       .  A
C170        C171   1.396       .  A
C170        H179   1.084       .  S
C171        C172   1.409       .  A
C171        S175   1.803       .  S
C172        C173   1.397       .  A
C173        C174   1.395       .  A
C173        H180   1.084       .  S
C174        S176   1.805       .  S
S175        H178   1.405       .  S
S176        H177   1.405       .  S
C181        C182   1.402       .  A
C181        C186   1.414       .  A
C182        C183   1.402       .  A
C182        H191   1.084       .  S
C183        C184   1.416       .  A
C183        S187   1.802       .  S
C184        C185   1.404       .  A
C185        C186   1.395       .  A
C185        H192   1.084       .  S
C186        S188   1.805       .  S
S187        H190   1.408       .  S
S188        H189   1.407       .  S
C193        C198   1.409       .  A
C193        C458   1.400   1_554  A
C194        C195   1.397       .  A
C194        C457   1.400       .  A
C194        H203   1.084       .  S
C195        C460   1.416       .  A
C195        S199   1.803       .  S
C196        C197   1.406       .  A
C196        C459   1.416   1_554  A
C197        C198   1.397       .  A
C197        H204   1.084       .  S
C198        S200   1.804       .  S
S199        H202   1.407       .  S
S200        H201   1.406       .  S
C205        C206   1.405       .  A
C205        C210   1.410       .  A
C206        C207   1.402       .  A
C206        H215   1.084       .  S
C207        C208   1.413       .  A
C207        S211   1.802       .  S
C208        C209   1.403       .  A
C209        C210   1.392       .  A
C209        H216   1.083       .  S
C210        S212   1.802       .  S
S211        H214   1.406       .  S
S212        H213   1.407       .  S
C217        C218   1.404       .  A
C217        C222   1.412       .  A
C218        C219   1.402       .  A
C218        H227   1.084       .  S
C219        C220   1.413       .  A
C219        S223   1.798       .  S
C220        C221   1.405       .  A
C221        C222   1.392       .  A
C221        H228   1.085       .  S
C222        S224   1.805       .  S
S223        H226   1.407       .  S
S224        H225   1.407       .  S
C229        C234   1.416   1_556  A
C229        C494   1.408       .  A
C230        C231   1.395       .  A
C230        C493   1.406       .  A
C230        H239   1.083       .  S
C231        C496   1.411       .  A
C231        S235   1.804       .  S
C232        C233   1.403   1_556  A
C232        C495   1.411       .  A
C233        C234   1.400       .  A
C233        H240   1.084       .  S
C234        S236   1.802       .  S
S235        H238   1.406       .  S
S236        H237   1.408       .  S
C241        C242   1.404       .  A
C241        C246   1.414       .  A
C242        C243   1.402       .  A
C242        H251   1.084       .  S
C243        C244   1.416       .  A
C243        S247   1.802       .  S
C244        C245   1.405       .  A
C245        C246   1.397       .  A
C245        H252   1.084       .  S
C246        S248   1.804       .  S
S247        H250   1.408       .  S
S248        H249   1.407       .  S
C253        C254   1.402       .  A
C253        C258   1.413       .  A
C254        C255   1.395       .  A
C254        H263   1.084       .  S
C255        C256   1.415       .  A
C255        S259   1.805       .  S
C256        C257   1.406       .  A
C257        C258   1.402       .  A
C257        H264   1.084       .  S
C258        S260   1.803       .  S
S259        H262   1.408       .  S
S260        H261   1.406       .  S
C265        N270   1.361       .  A
C265        C493   1.484       .  S
N266        C267   1.354       .  A
C267        N268   1.354       .  A
C267        C517   1.466       .  S
C269        N270   1.360       .  A
C269        C508   1.480       .  S
C271        N276   1.360       .  A
C271        C460   1.480       .  S
N272        C273   1.353       .  A
C273        N274   1.354       .  A
C273        C481   1.470       .  S
C275        N276   1.355       .  A
C275        C472   1.467       .  S
C277        N282   1.357       .  A
C277        C424   1.482       .  S
N278        C279   1.362       .  A
C279        N280   1.356   1_556  A
C279        C445   1.477       .  S
C281        N282   1.351       .  A
C281        C433   1.462       .  S
N283        C288   1.351       .  A
N283        C287   1.353       .  A
N283        H315   1.038   1_565  S
N284        C291   1.350   1_545  A
N284        C292   1.350       .  A
N285        C290   1.351       .  A
N285        C289   1.350       .  A
N285        H316   1.038       .  S
N286        C293   1.348       .  A
N286        C294   1.348       .  A
C287        C295   1.387       .  A
C287        C303   1.413       .  A
C288        C832   1.413       .  A
C288        C296   1.388       .  A
C289        C297   1.386       .  A
C289        C306   1.410       .  A
C290        C833   1.411       .  A
C290        C298   1.387       .  A
C291        C303   1.412       .  A
C291        C299   1.386       .  A
C292        C306   1.409       .  A
C292        C300   1.385       .  A
C293        C301   1.385       .  A
C293        C304   1.406   1_545  A
C294        C302   1.387       .  A
C294        C305   1.409   1_455  A
C295        C296   1.376       .  A
C295        H307   1.082       .  S
C296        H836   1.082       .  S
C297        C298   1.375       .  A
C297        H309   1.082       .  S
C298        H310   1.082       .  S
C299        C300   1.374   1_565  A
C299        H311   1.082       .  S
C300        H312   1.082       .  S
C301        C302   1.372       .  A
C301        H313   1.082       .  S
C302        H314   1.082       .  S
C303        C496   1.487       .  S
C304        C457   1.477       .  S
C304        C816   1.412   1_455  A
C305        C409   1.480   1_655  S
C305        C818   1.410       .  A
C306        C421   1.479       .  S
H308        C824   1.082   1_455  S
C317        N322   1.365       .  A
C317        C412   1.474       .  S
N318        C319   1.351       .  A
C319        N320   1.350       .  A
C319        C397   1.469       .  S
C321        N322   1.362       .  A
C321        C388   1.486       .  S
O323       Zr335   2.433       .  S
O323        C325   1.287       .  A
O324       Zr361   2.413       .  S
O324        C325   1.285       .  A
C325        C520   1.472       .  S
O326       Zr338   2.430       .  S
O326        C328   1.285       .  A
O327       Zr362   2.424       .  S
O327        C328   1.287       .  A
C328        C469   1.469       .  S
O329       Zr338   2.443       .  S
O329        C331   1.286       .  A
O330       Zr361   2.405       .  S
O330        C331   1.285       .  A
C331        C484   1.478       .  S
O332       Zr335   2.449       .  S
O332        C334   1.289       .  A
O333       Zr362   2.410       .  S
O333        C334   1.284       .  A
C334        C505   1.476       .  S
Zr335       O336   2.434       .  S
Zr335       O337   2.435       .  S
Zr335       O341   2.380       .  S
Zr335       O342   2.370       .  S
Zr335       O365   2.369       .  S
Zr335       O367   2.376       .  S
O336        H379   0.990       .  S
O337        H378   0.990       .  S
O337        H382   0.990       .  S
Zr338       O339   2.435       .  S
Zr338       O340   2.434       .  S
Zr338       O342   2.374       .  S
Zr338       O341   2.366       .  S
Zr338       O366   2.377       .  S
Zr338       O368   2.378       .  S
O339        H380   0.990       .  S
O339        H383   0.990       .  S
O340        H373   0.990       .  S
O341       Zr361   2.374       .  S
O342       Zr362   2.372       .  S
O342        H369   0.966       .  S
O343       Zr355   2.431       .  S
O343        C345   1.285       .  A
O344       Zr362   2.417       .  S
O344        C345   1.285       .  A
C345        C436   1.460       .  S
O346       Zr358   2.442       .  S
O346        C348   1.287       .  A
O347       Zr361   2.405       .  S
O347        C348   1.284       .  A
C348        C400   1.471       .  S
O349       Zr358   2.465       .  S
O349        C351   1.292       .  A
O350       Zr362   2.383       .  S
O350        C351   1.277       .  A
C351        C385   1.488       .  S
O352       Zr355   2.447       .  S
O352        C354   1.288       .  A
O353       Zr361   2.422       .  S
O353        C354   1.287       .  A
C354        C448   1.486       .  S
Zr355       O356   2.434       .  S
Zr355       O357   2.435       .  S
Zr355       O363   2.376       .  S
Zr355       O364   2.364       .  S
Zr355       O367   2.368       .  S
Zr355       O365   2.378       .  S
O356        H376   0.990       .  S
O356        H381   0.990       .  S
O357        H377   0.990       .  S
Zr358       O359   2.435       .  S
Zr358       O360   2.434       .  S
Zr358       O364   2.380       .  S
Zr358       O363   2.364       .  S
Zr358       O368   2.369       .  S
Zr358       O366   2.373       .  S
O359        H375   0.990       .  S
O360        H374   0.990       .  S
O360        H384   0.990       .  S
Zr361       O364   2.371       .  S
Zr361       O366   2.381       .  S
Zr361       O367   2.374       .  S
Zr362       O363   2.378       .  S
Zr362       O365   2.373       .  S
Zr362       O368   2.374       .  S
O363        H371   0.965       .  S
O366        H370   0.965       .  S
O367        H372   0.964       .  S
C385        C386   1.407       .  A
C385        C390   1.423       .  A
C386        C387   1.402       .  A
C386        H395   1.084       .  S
C387        C388   1.413       .  A
C387        S391   1.796       .  S
C388        C389   1.403       .  A
C389        C390   1.393       .  A
C389        H396   1.080       .  S
C390        S392   1.817       .  S
S391        H394   1.407       .  S
S392        H393   1.407       .  S
C397        C398   1.402       .  A
C397        C402   1.412       .  A
C398        C399   1.402       .  A
C398        H407   1.084       .  S
C399        C400   1.414       .  A
C399        S403   1.802       .  S
C400        C401   1.402       .  A
C401        C402   1.391       .  A
C401        H408   1.085       .  S
C402        S404   1.805       .  S
S403        H406   1.406       .  S
S404        H405   1.407       .  S
C409        C410   1.402       .  A
C410        C411   1.401       .  A
C410        H419   1.083   1_455  S
C411        C412   1.411       .  A
C411        S415   1.802       .  S
C413        C414   1.391       .  A
C413        H420   1.084       .  S
C414        S416   1.805       .  S
S415        H418   1.406   1_455  S
S416        H945   1.406       .  S
H417        S944   1.406       .  S
C421        C426   1.408       .  A
C422        C423   1.401       .  A
C422        H431   1.084       .  S
C423        S427   1.801       .  S
C424        C425   1.408       .  A
C425        C426   1.393       .  A
C425        H432   1.083       .  S
C426        S428   1.806       .  S
S427        H430   1.407       .  S
S428        H429   1.405       .  S
C433        C434   1.400       .  A
C433        C438   1.414       .  A
C434        C435   1.396       .  A
C434        H443   1.084       .  S
C435        C436   1.409       .  A
C435        S439   1.803       .  S
C436        C437   1.398       .  A
C437        C438   1.396       .  A
C437        H444   1.084       .  S
C438        S440   1.805       .  S
S439        H442   1.405       .  S
S440        H441   1.405       .  S
C445        C446   1.401       .  A
C445        C450   1.415       .  A
C446        C447   1.402       .  A
C446        H455   1.084       .  S
C447        C448   1.418       .  A
C447        S451   1.801       .  S
C448        C449   1.405       .  A
C449        C450   1.398       .  A
C449        H456   1.084       .  S
C450        S452   1.805       .  S
S451        H454   1.408       .  S
S452        H453   1.407       .  S
C457        C462   1.408       .  A
C458        C459   1.397       .  A
C458        H467   1.084       .  S
C459        S463   1.804       .  S
C460        C461   1.407       .  A
C461        C462   1.395       .  A
C461        H468   1.083       .  S
C462        S464   1.805       .  S
S463        H466   1.407       .  S
S464        H465   1.405       .  S
C469        C470   1.404       .  A
C469        C474   1.410       .  A
C470        C471   1.400       .  A
C470        H479   1.084       .  S
C471        C472   1.411       .  A
C471        S475   1.802       .  S
C472        C473   1.401       .  A
C473        C474   1.392       .  A
C473        H480   1.084       .  S
C474        S476   1.801       .  S
S475        H478   1.407       .  S
S476        H477   1.407       .  S
C481        C482   1.404       .  A
C481        C486   1.410       .  A
C482        C483   1.403       .  A
C482        H491   1.084       .  S
C483        C484   1.416       .  A
C483        S487   1.799       .  S
C484        C485   1.403       .  A
C485        C486   1.390       .  A
C485        H492   1.084       .  S
C486        S488   1.804       .  S
S487        H490   1.407       .  S
S488        H489   1.407       .  S
C493        C498   1.417       .  A
C494        C495   1.396       .  A
C494        H503   1.083       .  S
C495        S499   1.805       .  S
C496        C497   1.404       .  A
C497        C498   1.402       .  A
C497        H504   1.084       .  S
C498        S500   1.802       .  S
S499        H502   1.406       .  S
S500        H501   1.407       .  S
C505        C506   1.403       .  A
C505        C510   1.413       .  A
C506        C507   1.401       .  A
C506        H515   1.084       .  S
C507        C508   1.415       .  A
C507        S511   1.802       .  S
C508        C509   1.405       .  A
C509        C510   1.397       .  A
C509        H516   1.084       .  S
C510        S512   1.804       .  S
S511        H514   1.407       .  S
S512        H513   1.407       .  S
C517        C518   1.401       .  A
C517        C522   1.411       .  A
C518        C519   1.394       .  A
C518        H527   1.084       .  S
C519        C520   1.413       .  A
C519        S523   1.805       .  S
C520        C521   1.405       .  A
C521        C522   1.398       .  A
C521        H528   1.084       .  S
C522        S524   1.804       .  S
S523        H526   1.408       .  S
S524        H525   1.406       .  S
C529        N794   1.358       .  A
C529        N534   1.361   1_556  A
C529        C757   1.483       .  S
N530        C793   1.358       .  A
N530        C531   1.354       .  A
C531        N532   1.357       .  A
C531        C781   1.484       .  S
N532        C797   1.355       .  A
C533        N796   1.355       .  A
C533        N534   1.357       .  A
C533        C772   1.484       .  S
C535        N800   1.357       .  A
C535        N540   1.361   1_556  A
C535        C724   1.479   1_556  S
N536        C799   1.357       .  A
N536        C537   1.353       .  A
C537        N538   1.354       .  A
C537        C745   1.465       .  S
N538        C803   1.356       .  A
C539        N802   1.357   1_554  A
C539        N540   1.359       .  A
C539        C736   1.475       .  S
C541        N806   1.362   1_554  A
C541        N546   1.356       .  A
C541        C688   1.482   1_554  S
N542        C805   1.362       .  A
N542        C543   1.362       .  A
C543        N544   1.356       .  A
C543        C709   1.475       .  S
N544        C809   1.353       .  A
C545        N808   1.352       .  A
C545        N546   1.350       .  A
C545        C697   1.458       .  S
N547        C552   1.351   1_554  A
N547        C551   1.350   1_554  A
N547        H579   1.037   1_565  S
N548        C555   1.350   1_545  A
N548        C556   1.350       .  A
N549        C554   1.351       .  A
N549        C553   1.350       .  A
N549        H580   1.037   1_556  S
N550        C557   1.348       .  A
N550        C558   1.349       .  A
C551        C559   1.387       .  A
C551        C567   1.411       .  A
C552        C560   1.387       .  A
C553        C561   1.386       .  A
C553        C570   1.410       .  A
C554        C562   1.387       .  A
C555        C567   1.411       .  A
C555        C563   1.386   1_556  A
C556        C570   1.409       .  A
C556        C564   1.386   1_556  A
C557        C565   1.386       .  A
C557        C568   1.407   1_545  A
C558        C566   1.386       .  A
C558        C569   1.409       .  A
C559        C560   1.375       .  A
C559        H571   1.082       .  S
C561        C562   1.375       .  A
C561        H573   1.082       .  S
C562        H574   1.082       .  S
C563        C564   1.373   1_565  A
C563        H575   1.082       .  S
C564        H576   1.082       .  S
C565        C566   1.371       .  A
C565        H577   1.082       .  S
C566        H578   1.082       .  S
C567        C760   1.482       .  S
C568        C721   1.477       .  S
C569        C673   1.485   1_554  S
C570        C685   1.478       .  S
C581        N846   1.361       .  A
C581        N586   1.366   1_556  A
C581        C676   1.480       .  S
N582        C845   1.359       .  A
N582        C583   1.352       .  A
C583        N584   1.352       .  A
C583        C661   1.470       .  S
N584        C849   1.357       .  A
C585        N848   1.354   1_554  A
C585        N586   1.362       .  A
C585        C652   1.484       .  S
O587       Zr599   2.459       .  S
O587        C589   1.291       .  A
O588       Zr625   2.389       .  S
O588        C589   1.277       .  A
C589        C784   1.491       .  S
O590       Zr602   2.440       .  S
O590        C592   1.288       .  A
O591       Zr626   2.422       .  S
O591        C592   1.286       .  A
C592        C733   1.480       .  S
O593       Zr602   2.443       .  S
O593        C595   1.286       .  A
O594       Zr625   2.408       .  S
O594        C595   1.283       .  A
C595        C748   1.463       .  S
O596       Zr599   2.452       .  S
O596        C598   1.290       .  A
O597       Zr626   2.414       .  S
O597        C598   1.285       .  A
C598        C769   1.479       .  S
Zr599       O600   2.435       .  S
Zr599       O601   2.435       .  S
Zr599       O605   2.376       .  S
Zr599       O606   2.378       .  S
Zr599       O629   2.378       .  S
Zr599       O631   2.374       .  S
O600        H643   0.990       .  S
O601        H642   0.990       .  S
O601        H646   0.990       .  S
Zr602       O603   2.437       .  S
Zr602       O604   2.434       .  S
Zr602       O606   2.378       .  S
Zr602       O605   2.373       .  S
Zr602       O630   2.377       .  S
Zr602       O632   2.374       .  S
O603        H644   0.990       .  S
O603        H647   0.990       .  S
O604        H637   0.989       .  S
O605       Zr625   2.373       .  S
O606       Zr626   2.381       .  S
O606        H633   0.966       .  S
O607       Zr619   2.431       .  S
O607        C609   1.284       .  A
O608       Zr626   2.411       .  S
O608        C609   1.284       .  A
C609        C700   1.456       .  S
O610       Zr622   2.444       .  S
O610        C612   1.287       .  A
O611       Zr625   2.393       .  S
O611        C612   1.282       .  A
C612        C664   1.469       .  S
O613       Zr622   2.452       .  S
O613        C615   1.290       .  A
O614       Zr626   2.408       .  S
O614        C615   1.282       .  A
C615        C649   1.492       .  S
O616       Zr619   2.449       .  S
O616        C618   1.289       .  A
O617       Zr625   2.412       .  S
O617        C618   1.284       .  A
C618        C712   1.482       .  S
Zr619       O620   2.434       .  S
Zr619       O621   2.435       .  S
Zr619       O627   2.375       .  S
Zr619       O628   2.363       .  S
Zr619       O631   2.367       .  S
Zr619       O629   2.380       .  S
O620        H640   0.990       .  S
O620        H645   0.990       .  S
O621        H641   0.990       .  S
Zr622       O623   2.433       .  S
Zr622       O624   2.433       .  S
Zr622       O628   2.374       .  S
Zr622       O627   2.367       .  S
Zr622       O632   2.372       .  S
Zr622       O630   2.376       .  S
O623        H639   0.990       .  S
O624        H638   0.990       .  S
O624        H648   0.990       .  S
Zr625       O628   2.368       .  S
Zr625       O630   2.378       .  S
Zr625       O631   2.374       .  S
Zr626       O627   2.378       .  S
Zr626       O629   2.379       .  S
Zr626       O632   2.375       .  S
O627        H635   0.965       .  S
O630        H634   0.966       .  S
O631        H636   0.964       .  S
C649        C650   1.411       .  A
C649        C654   1.421       .  A
C650        C651   1.404       .  A
C650        H659   1.083       .  S
C651        C652   1.410       .  A
C651        S655   1.799       .  S
C652        C653   1.403       .  A
C653        C654   1.396       .  A
C653        H660   1.079       .  S
C654        S656   1.815       .  S
S655        H658   1.407       .  S
S656        H657   1.406       .  S
C661        C662   1.404       .  A
C661        C666   1.413       .  A
C662        C663   1.402       .  A
C662        H671   1.084       .  S
C663        C664   1.412       .  A
C663        S667   1.802       .  S
C664        C665   1.402       .  A
C665        C666   1.390       .  A
C665        H672   1.085       .  S
C666        S668   1.805       .  S
S667        H670   1.407       .  S
S668        H669   1.406       .  S
C673        C674   1.403   1_556  A
C673        C942   1.411       .  A
C674        C675   1.404       .  A
C674        H683   1.083       .  S
C675        C676   1.412   1_554  A
C675        S679   1.804       .  S
C676        C941   1.405       .  A
C677        C940   1.406       .  A
C677        C678   1.394       .  A
C677        H684   1.084       .  S
C678        C937   1.409       .  A
C678        S680   1.804       .  S
S679        H682   1.407       .  S
C685        C950   1.402       .  A
C685        C690   1.408   1_556  A
C686        C949   1.401       .  A
C686        C687   1.400       .  A
C686        H695   1.084       .  S
C687        C952   1.416       .  A
C687        S691   1.801       .  S
C688        C951   1.416       .  A
C688        C689   1.408   1_556  A
C689        C690   1.391       .  A
C689        H696   1.083       .  S
C690        S692   1.807       .  S
S691        H694   1.407       .  S
S692        H693   1.405       .  S
C697        C698   1.399       .  A
C697        C702   1.413       .  A
C698        C699   1.395       .  A
C698        H707   1.084       .  S
C699        C700   1.409       .  A
C699        S703   1.804       .  S
C700        C701   1.397       .  A
C701        C702   1.394       .  A
C701        H708   1.084       .  S
C702        S704   1.804       .  S
S703        H706   1.404       .  S
S704        H705   1.406       .  S
C709        C710   1.402       .  A
C709        C714   1.414       .  A
C710        C711   1.401       .  A
C710        H719   1.084       .  S
C711        C712   1.416       .  A
C711        S715   1.802       .  S
C712        C713   1.404       .  A
C713        C714   1.397       .  A
C713        H720   1.084       .  S
C714        S716   1.805       .  S
S715        H718   1.408       .  S
S716        H717   1.407       .  S
C721        C986   1.399   1_554  A
C721        C726   1.408       .  A
C722        C985   1.399       .  A
C722        C723   1.396       .  A
C722        H731   1.084       .  S
C723        C988   1.418       .  A
C723        S727   1.803       .  S
C724        C987   1.417   1_554  A
C724        C725   1.406       .  A
C725        C726   1.397       .  A
C725        H732   1.083       .  S
C726        S728   1.804       .  S
S727        H730   1.408       .  S
S728        H729   1.406       .  S
C733        C734   1.406       .  A
C733        C738   1.414       .  A
C734        C735   1.401       .  A
C734        H743   1.084       .  S
C735        C736   1.412       .  A
C735        S739   1.803       .  S
C736        C737   1.402       .  A
C737        C738   1.395       .  A
C737        H744   1.084       .  S
C738        S740   1.800       .  S
S739        H742   1.406       .  S
S740        H741   1.407       .  S
C745        C746   1.401       .  A
C745        C750   1.413       .  A
C746        C747   1.396       .  A
C746        H755   1.084       .  S
C747        C748   1.409       .  A
C747        S751   1.805       .  S
C748        C749   1.400       .  A
C749        C750   1.399       .  A
C749        H756   1.084       .  S
C750        S752   1.805       .  S
S751        H754   1.406       .  S
S752        H753   1.406       .  S
C757       C1022   1.409       .  A
C757        C762   1.416   1_556  A
C758       C1021   1.407       .  A
C758        C759   1.396       .  A
C758        H767   1.084       .  S
C759       C1024   1.412       .  A
C759        S763   1.806       .  S
C760       C1023   1.410       .  A
C760        C761   1.401   1_556  A
C761        C762   1.396       .  A
C761        H768   1.084       .  S
C762        S764   1.802       .  S
S763        H766   1.406       .  S
S764        H765   1.408       .  S
C769        C770   1.403       .  A
C769        C774   1.413       .  A
C770        C771   1.401       .  A
C770        H779   1.084       .  S
C771        C772   1.417       .  A
C771        S775   1.802       .  S
C772        C773   1.405       .  A
C773        C774   1.397       .  A
C773        H780   1.084       .  S
C774        S776   1.803       .  S
S775        H778   1.407       .  S
S776        H777   1.407       .  S
C781        C782   1.401       .  A
C781        C786   1.416       .  A
C782        C783   1.390       .  A
C782        H791   1.084       .  S
C783        C784   1.424       .  A
C783        S787   1.807       .  S
C784        C785   1.409       .  A
C785        C786   1.402       .  A
C785        H792   1.083       .  S
C786        S788   1.802       .  S
S787        H790   1.404       .  S
S788        H789   1.407       .  S
C793        N798   1.361       .  A
C793       C1021   1.480       .  S
N794        C795   1.354       .  A
C795        N796   1.356   1_556  A
C795       C1045   1.480       .  S
C797        N798   1.358       .  A
C797       C1036   1.486       .  S
C799        N804   1.360       .  A
C799        C988   1.482       .  S
N800        C801   1.353       .  A
C801        N802   1.355       .  A
C801       C1009   1.465       .  S
C803        N804   1.359       .  A
C803       C1000   1.473       .  S
C805        N810   1.355       .  A
C805        C952   1.481       .  S
N806        C807   1.362       .  A
C807        N808   1.355   1_556  A
C807        C973   1.475       .  S
C809        N810   1.349       .  A
C809        C961   1.459       .  S
N811        C816   1.351       .  A
N811        C815   1.352       .  A
N811        H843   1.038   1_565  S
N812        C819   1.349   1_545  A
N812        C820   1.348       .  A
N813        C818   1.351       .  A
N813        C817   1.349       .  A
N813        H844   1.037       .  S
N814        C821   1.349       .  A
N814        C822   1.350       .  A
C815        C823   1.387       .  A
C815        C831   1.413       .  A
C816        C824   1.387       .  A
C817        C825   1.387       .  A
C817        C834   1.409       .  A
C818        C826   1.387       .  A
C819        C831   1.410       .  A
C819        C827   1.387       .  A
C820        C834   1.407       .  A
C820        C828   1.386       .  A
C821        C829   1.386       .  A
C821        C832   1.409   1_545  A
C822        C830   1.386       .  A
C822        C833   1.412       .  A
C823        C824   1.375       .  A
C823        H835   1.082       .  S
C825        C826   1.375       .  A
C825        H837   1.082       .  S
C826        H838   1.082       .  S
C827        C828   1.372   1_565  A
C827        H839   1.082       .  S
C828        H840   1.082       .  S
C829        C830   1.374       .  A
C829        H841   1.082       .  S
C830        H842   1.082       .  S
C831       C1024   1.484       .  S
C832        C985   1.480       .  S
C833        C937   1.486       .  S
C834        C949   1.474       .  S
C845        N850   1.366       .  A
C845        C940   1.480       .  S
N846        C847   1.352       .  A
C847        N848   1.351       .  A
C847        C925   1.469       .  S
C849        N850   1.363       .  A
C849        C916   1.487       .  S
O851       Zr863   2.460       .  S
O851        C853   1.292       .  A
O852       Zr889   2.385       .  S
O852        C853   1.277       .  A
C853       C1048   1.488       .  S
O854       Zr866   2.435       .  S
O854        C856   1.286       .  A
O855       Zr890   2.423       .  S
O855        C856   1.286       .  A
C856        C997   1.479       .  S
O857       Zr866   2.434       .  S
O857        C859   1.285       .  A
O858       Zr889   2.417       .  S
O858        C859   1.285       .  A
C859       C1012   1.463       .  S
O860       Zr863   2.451       .  S
O860        C862   1.290       .  A
O861       Zr890   2.415       .  S
O861        C862   1.285       .  A
C862       C1033   1.479       .  S
Zr863       O864   2.434       .  S
Zr863       O865   2.436       .  S
Zr863       O869   2.374       .  S
Zr863       O870   2.378       .  S
Zr863       O893   2.376       .  S
Zr863       O895   2.371       .  S
O864        H907   0.990       .  S
O865        H906   0.990       .  S
O865        H910   0.990       .  S
Zr866       O867   2.437       .  S
Zr866       O868   2.434       .  S
Zr866       O870   2.373       .  S
Zr866       O869   2.372       .  S
Zr866       O894   2.380       .  S
Zr866       O896   2.374       .  S
O867        H908   0.990       .  S
O867        H911   0.990       .  S
O868        H901   0.990       .  S
O869       Zr889   2.373       .  S
O870       Zr890   2.377       .  S
O870        H897   0.966       .  S
O871       Zr883   2.429       .  S
O871        C873   1.284       .  A
O872       Zr890   2.412       .  S
O872        C873   1.284       .  A
C873        C964   1.456       .  S
O874       Zr886   2.450       .  S
O874        C876   1.288       .  A
O875       Zr889   2.391       .  S
O875        C876   1.282       .  A
C876        C928   1.470       .  S
O877       Zr886   2.456       .  S
O877        C879   1.290       .  A
O878       Zr890   2.399       .  S
O878        C879   1.280       .  A
C879        C913   1.490       .  S
O880       Zr883   2.439       .  S
O880        C882   1.286       .  A
O881       Zr889   2.418       .  S
O881        C882   1.286       .  A
C882        C976   1.483       .  S
Zr883       O884   2.434       .  S
Zr883       O885   2.434       .  S
Zr883       O891   2.373       .  S
Zr883       O892   2.367       .  S
Zr883       O895   2.366       .  S
Zr883       O893   2.377       .  S
O884        H904   0.990       .  S
O884        H909   0.990       .  S
O885        H905   0.990       .  S
Zr886       O887   2.433       .  S
Zr886       O888   2.433       .  S
Zr886       O892   2.374       .  S
Zr886       O891   2.372       .  S
Zr886       O896   2.372       .  S
Zr886       O894   2.375       .  S
O887        H903   0.990       .  S
O888        H902   0.990       .  S
O888        H912   0.990       .  S
Zr889       O892   2.369       .  S
Zr889       O894   2.378       .  S
Zr889       O895   2.376       .  S
Zr890       O891   2.380       .  S
Zr890       O893   2.377       .  S
Zr890       O896   2.374       .  S
O891        H899   0.966       .  S
O894        H898   0.966       .  S
O895        H900   0.965       .  S
C913        C914   1.409       .  A
C913        C918   1.421       .  A
C914        C915   1.404       .  A
C914        H923   1.084       .  S
C915        C916   1.413       .  A
C915        S919   1.798       .  S
C916        C917   1.403       .  A
C917        C918   1.394       .  A
C917        H924   1.079       .  S
C918        S920   1.815       .  S
S919        H922   1.407       .  S
S920        H921   1.406       .  S
C925        C926   1.404       .  A
C925        C930   1.411       .  A
C926        C927   1.404       .  A
C926        H935   1.084       .  S
C927        C928   1.413       .  A
C927        S931   1.802       .  S
C928        C929   1.401       .  A
C929        C930   1.389       .  A
C929        H936   1.085       .  S
C930        S932   1.805       .  S
S931        H934   1.407       .  S
S932        H933   1.407       .  S
C937        C938   1.404       .  A
C938        C939   1.405       .  A
C938        H947   1.083       .  S
C939        C940   1.412       .  A
C939        S943   1.803       .  S
C941        C942   1.394       .  A
C941        H948   1.084       .  S
C942        S944   1.805       .  S
S943        H946   1.406       .  S
C949        C954   1.406       .  A
C950        C951   1.401       .  A
C950        H959   1.084       .  S
C951        S955   1.802       .  S
C952        C953   1.408       .  A
C953        C954   1.391       .  A
C953        H960   1.083       .  S
C954        S956   1.806       .  S
S955        H958   1.407       .  S
S956        H957   1.406       .  S
C961        C962   1.400       .  A
C961        C966   1.414       .  A
C962        C963   1.396       .  A
C962        H971   1.084       .  S
C963        C964   1.409       .  A
C963        S967   1.804       .  S
C964        C965   1.397       .  A
C965        C966   1.394       .  A
C965        H972   1.084       .  S
C966        S968   1.805       .  S
S967        H970   1.405       .  S
S968        H969   1.405       .  S
C973        C974   1.401       .  A
C973        C978   1.415       .  A
C974        C975   1.400       .  A
C974        H983   1.084       .  S
C975        C976   1.418       .  A
C975        S979   1.802       .  S
C976        C977   1.404       .  A
C977        C978   1.395       .  A
C977        H984   1.084       .  S
C978        S980   1.805       .  S
S979        H982   1.407       .  S
S980        H981   1.407       .  S
C985        C990   1.409       .  A
C986        C987   1.395       .  A
C986        H995   1.084       .  S
C987        S991   1.804       .  S
C988        C989   1.407       .  A
C989        C990   1.398       .  A
C989        H996   1.083       .  S
C990        S992   1.804       .  S
S991        H994   1.408       .  S
S992        H993   1.406       .  S
C997        C998   1.406       .  A
C997       C1002   1.413       .  A
C998        C999   1.400       .  A
C998       H1007   1.084       .  S
C999       C1000   1.411       .  A
C999       S1003   1.803       .  S
C1000      C1001   1.402       .  A
C1001      C1002   1.394       .  A
C1001      H1008   1.084       .  S
C1002      S1004   1.799       .  S
S1003      H1006   1.407       .  S
S1004      H1005   1.407       .  S
C1009      C1010   1.401       .  A
C1009      C1014   1.413       .  A
C1010      C1011   1.396       .  A
C1010      H1019   1.084       .  S
C1011      C1012   1.410       .  A
C1011      S1015   1.806       .  S
C1012      C1013   1.400       .  A
C1013      C1014   1.398       .  A
C1013      H1020   1.084       .  S
C1014      S1016   1.804       .  S
S1015      H1018   1.405       .  S
S1016      H1017   1.406       .  S
C1021      C1026   1.415       .  A
C1022      C1023   1.397       .  A
C1022      H1031   1.083       .  S
C1023      S1027   1.806       .  S
C1024      C1025   1.402       .  A
C1025      C1026   1.398       .  A
C1025      H1032   1.084       .  S
C1026      S1028   1.802       .  S
S1027      H1030   1.405       .  S
S1028      H1029   1.408       .  S
C1033      C1034   1.403       .  A
C1033      C1038   1.413       .  A
C1034      C1035   1.401       .  A
C1034      H1043   1.084       .  S
C1035      C1036   1.417       .  A
C1035      S1039   1.801       .  S
C1036      C1037   1.407       .  A
C1037      C1038   1.398       .  A
C1037      H1044   1.084       .  S
C1038      S1040   1.804       .  S
S1039      H1042   1.408       .  S
S1040      H1041   1.407       .  S
C1045      C1046   1.401       .  A
C1045      C1050   1.414       .  A
C1046      C1047   1.391       .  A
C1046      H1055   1.084       .  S
C1047      C1048   1.424       .  A
C1047      S1051   1.808       .  S
C1048      C1049   1.408       .  A
C1049      C1050   1.400       .  A
C1049      H1056   1.083       .  S
C1050      S1052   1.802       .  S
S1051      H1054   1.401       .  S
S1052      H1053   1.407       .  S
