geometry optimzed in LAMMPS
_audit_creation_date              2020-11-30 
_audit_creation_method            'lammps2cif' 
_symmetry_space_group_name_H-M    'P1' 
_symmetry_Int_Tables_number       1 
_symmetry_cell_setting            triclinic 
loop_ 
_symmetry_equiv_pos_as_xyz 
  x,y,z 
_cell_length_a                    54.81143206 
_cell_length_b                    28.489755395937866 
_cell_length_c                    32.096607720343826 
_cell_angle_alpha                 90.19047508790118 
_cell_angle_beta                  90.06500459019564 
_cell_angle_gamma                 89.9294855474196 
loop_ 
_atom_site_label 
_atom_site_type_symbol 
_atom_site_fract_x 
_atom_site_fract_y 
_atom_site_fract_z 
_atom_site_charge 
N1          N  0.12296605  0.98378451  0.07671092    -0.26400
N2          N  0.14289904  0.99238923  0.05488191    -0.34300
C3          C  0.16224804  0.97529701  0.07549958     0.01900
C4          C  0.15440918  0.95388744  0.11174182     0.07900
C5          C  0.12929693  0.96001606  0.11134674    -0.05200
H6          H  0.18003461  0.97068714  0.06142113     0.08600
H7          H  0.11635976  0.94254771  0.13143770     0.09800
Cu8        Cu  0.14315203  0.00312047  0.99097495     0.44200
Cu9        Cu  0.08784308  0.99366145  0.05312274     0.42000
Cu10       Cu  0.08646013  0.97959272  0.94164274     0.43900
N11         N  0.14071200  0.97540126  0.93122115    -0.33800
N12         N  0.11967370  0.96279746  0.91453522    -0.28100
C13         C  0.12396662  0.93337224  0.88246865    -0.04200
C14         C  0.14894204  0.92798092  0.87815964     0.08000
C15         C  0.15893834  0.95497571  0.90974360     0.01800
H16         H  0.10997364  0.91382290  0.86616681     0.09500
H17         H  0.17771958  0.95422866  0.92005869     0.08600
N18         N  0.05691336  0.00325958  0.97614455    -0.35300
N19         N  0.05693297  0.00750636  0.01718686    -0.27500
C20         C  0.03526911  0.02539008  0.02939034    -0.02700
C21         C  0.02121586  0.03332488  0.99417668     0.05900
C22         C  0.03553077  0.01891764  0.96109380     0.04000
H23         H  0.03054822  0.03394498  0.06124133     0.09100
H24         H  0.03093086  0.02044192  0.92835268     0.07900
N25         N  0.20206115  0.15807250  0.38846474    -0.02600
C26         C  0.22014162  0.19103933  0.39223425     0.00000
C27         C  0.21949058  0.21196501  0.43110180    -0.22900
C28         C  0.20045999  0.19244596  0.45211660    -0.23100
C29         C  0.19005160  0.15970642  0.42580197    -0.00100
H30         H  0.23161573  0.23894439  0.44281234     0.13600
H31         H  0.19498230  0.20065294  0.48371280     0.13700
N32         N  0.18228990  0.91048776  0.16258552    -0.02600
C33         C  0.19311433  0.86725161  0.15953010     0.00000
C34         C  0.18481084  0.84331045  0.12481684    -0.22900
C35         C  0.16831144  0.87177076  0.10557331    -0.23100
C36         C  0.16711172  0.91255781  0.12873260    -0.00100
H37         H  0.19077937  0.80916376  0.11393303     0.13600
H38         H  0.15909706  0.86463101  0.07637923     0.13700
N39         N  0.17099411  0.20589638  0.70323959    -0.02600
C40         C  0.17981841  0.25014665  0.70736577     0.00000
C41         C  0.16504832  0.28151323  0.68631141    -0.22900
C42         C  0.14631444  0.25580115  0.66908172    -0.23100
C43         C  0.15051115  0.20956746  0.67982382    -0.00100
H44         H  0.16797460  0.31886071  0.68291783     0.13600
H45         H  0.13207904  0.26899225  0.64888107     0.13700
N46         N  0.17978100  0.89159632  0.83008349    -0.02600
C47         C  0.18870143  0.84751786  0.82491448     0.00000
C48         C  0.17613194  0.81645966  0.84996631    -0.22900
C49         C  0.15869022  0.84220608  0.87083302    -0.23100
C50         C  0.16139827  0.88812404  0.85804029    -0.00100
H51         H  0.17978365  0.77936579  0.85363314     0.13600
H52         H  0.14625584  0.82929231  0.89428866     0.13700
N53         N  0.13266339  0.11056285  0.46117592    -0.26400
N54         N  0.14787747  0.09805605  0.49117791    -0.34300
C55         C  0.17071544  0.10838595  0.47974339     0.01900
C56         C  0.17029295  0.12881628  0.44082928     0.07900
C57         C  0.14576081  0.12963088  0.42976989    -0.05200
H58         H  0.18617603  0.10735417  0.50074022     0.08600
H59         H  0.13787139  0.14754555  0.40331308     0.09800
Cu60       Cu  0.13835961  0.08718764  0.55274148     0.44200
Cu61       Cu  0.09480414  0.10856962  0.46998005     0.42000
Cu62       Cu  0.08063362  0.12552265  0.58069243     0.43900
N63         N  0.13170384  0.11768268  0.61016659    -0.33800
N64         N  0.11034340  0.13660859  0.61889119    -0.28100
C65         C  0.11321533  0.16877947  0.64925282    -0.04200
C66         C  0.13761036  0.16971204  0.66053511     0.08000
C67         C  0.14869584  0.13652720  0.63529953     0.01800
H68         H  0.09927483  0.19350721  0.65873176     0.09500
H69         H  0.16808192  0.13238656  0.63047747     0.08600
N70         N  0.05577308  0.10346160  0.53647008    -0.35300
N71         N  0.06030642  0.09754849  0.49629116    -0.27500
C72         C  0.04014350  0.07975088  0.47793675    -0.02700
C73         C  0.02236868  0.07398385  0.50823755     0.05900
C74         C  0.03295144  0.08944753  0.54477318     0.04000
H75         H  0.03884252  0.07012653  0.44538071     0.09100
H76         H  0.02492979  0.08940217  0.57553342     0.07900
N77         N  0.36134544  0.35665950  0.20121144    -0.02600
C78         C  0.35780457  0.31188905  0.21401277     0.00000
C79         C  0.37452229  0.28236020  0.19504978    -0.22900
C80         C  0.38904787  0.31018259  0.17018916    -0.23100
C81         C  0.38043447  0.35555289  0.17445527    -0.00100
H82         H  0.37571005  0.24464309  0.19833339     0.13600
H83         H  0.40370377  0.29838244  0.15017849     0.13700
N84         N  0.34621453  0.67695042  0.30652284    -0.02600
C85         C  0.33932952  0.72061345  0.29467954     0.00000
C86         C  0.35397883  0.75380544  0.31384177    -0.22900
C87         C  0.37058275  0.72969456  0.33789993    -0.23100
C88         C  0.36524355  0.68269415  0.33292970    -0.00100
H89         H  0.35186828  0.79153570  0.31239365     0.13600
H90         H  0.38403490  0.74484181  0.35861805     0.13700
N91         N  0.39325776  0.48298385  0.95240972    -0.26400
N92         N  0.37568094  0.48322139  0.98054976    -0.34300
C93         C  0.35523527  0.46633715  0.96318230     0.01900
C94         C  0.35995933  0.45377467  0.92232277     0.07900
C95         C  0.38432909  0.46518078  0.91648778    -0.05200
H96         H  0.33945694  0.45569403  0.98104812     0.08600
H97         H  0.39557439  0.45456227  0.89041000     0.09800
Cu98       Cu  0.38176185  0.48242381  0.04427774     0.44200
Cu99       Cu  0.42960583  0.49452527  0.96837800     0.42000
Cu100      Cu  0.44292200  0.46563497  0.07701465     0.43900
N101        N  0.39070965  0.44808629  0.09910607    -0.33800
N102        N  0.41346533  0.43870211  0.10982423    -0.28100
C103        C  0.41337151  0.40657406  0.14054259    -0.04200
C104        C  0.38935842  0.39589032  0.15005161     0.08000
C105        C  0.37554368  0.42271810  0.12299145     0.01800
H106        H  0.42953196  0.38998321  0.15311584     0.09500
H107        H  0.35612404  0.41990365  0.11762978     0.08600
N108        N  0.46737605  0.49827739  0.03704276    -0.35300
N109        N  0.46285284  0.50799612  0.99747901    -0.27500
C110        C  0.48232561  0.53013486  0.98118534    -0.02700
C111        C  0.49976862  0.53492659  0.01208361     0.05900
C112        C  0.48968500  0.51435684  0.04702164     0.04000
H113        H  0.48338634  0.54299927  0.94956672     0.09100
H114        H  0.49782158  0.51168178  0.07763126     0.07900
N115        N  0.33644580  0.41443916  0.86403818    -0.02600
C116        C  0.32528748  0.37218495  0.85998721     0.00000
C117        C  0.32917086  0.34539148  0.89521125    -0.22900
C118        C  0.34312631  0.37209383  0.92179274    -0.23100
C119        C  0.34731540  0.41430977  0.90194043    -0.00100
H120        H  0.32173722  0.31100749  0.90162984     0.13600
H121        H  0.34898813  0.36234256  0.95278198     0.13700
N122        N  0.33693559  0.67119828  0.65283155    -0.02600
C123        C  0.32806459  0.71536017  0.65821289     0.00000
C124        C  0.33445318  0.74299185  0.62454235    -0.22900
C125        C  0.34803302  0.71520290  0.59815348    -0.23100
C126        C  0.34947575  0.67149236  0.61645922    -0.00100
H127        H  0.32916572  0.77906443  0.61911021     0.13600
H128        H  0.35562996  0.72547560  0.56846474     0.13700
N129        N  0.39249424  0.59577212  0.56443053    -0.26400
N130        N  0.37332177  0.59267144  0.53950569    -0.34300
C131        C  0.35416644  0.61356973  0.55787832     0.01900
C132        C  0.36129490  0.63087674  0.59625326     0.07900
C133        C  0.38582186  0.61915728  0.59926043    -0.05200
H134        H  0.33732339  0.62187986  0.54187487     0.08600
H135        H  0.39852536  0.63197682  0.62246328     0.09800
Cu136      Cu  0.37509729  0.57966902  0.47598585     0.44200
Cu137      Cu  0.42791540  0.57874048  0.54511792     0.42000
Cu138      Cu  0.43382169  0.59287846  0.43306285     0.43900
N139        N  0.38051820  0.60221018  0.41536047    -0.33800
N140        N  0.40252249  0.61125067  0.40077181    -0.28100
C141        C  0.40045319  0.63796505  0.36643896    -0.04200
C142        C  0.37591861  0.64521828  0.35858257     0.08000
C143        C  0.36382279  0.62208133  0.39022527     0.01800
H144        H  0.41563276  0.65413100  0.35047902     0.09500
H145        H  0.34460017  0.62487711  0.39750576     0.08600
N146        N  0.46164135  0.56895592  0.47129195    -0.35300
N147        N  0.46002964  0.56423744  0.51219823    -0.27500
C148        C  0.48159665  0.54815804  0.52676053    -0.02700
C149        C  0.49725844  0.54210118  0.49324616     0.05900
C150        C  0.48394353  0.55551113  0.45871907     0.04000
H151        H  0.48541836  0.54057410  0.55912002     0.09100
H152        H  0.49003020  0.55570820  0.42668026     0.07900
N153        N  0.62285979  0.62737700  0.08488349    -0.26400
N154        N  0.64341232  0.61933755  0.06460082    -0.34300
C155        C  0.66184025  0.63966592  0.08553367     0.01900
C156        C  0.65242564  0.66165110  0.12045194     0.07900
C157        C  0.62762069  0.65353327  0.11888204    -0.05200
H158        H  0.68011916  0.64367711  0.07334944     0.08600
H159        H  0.61383194  0.66932321  0.13855403     0.09800
Cu160      Cu  0.64440282  0.59814131  0.00269566     0.44200
Cu161      Cu  0.58915132  0.61055758  0.06072338     0.42000
Cu162      Cu  0.58697521  0.61188509  0.94871071     0.43900
N163        N  0.64179184  0.61545860  0.94019286    -0.33800
N164        N  0.62089667  0.62613270  0.92189589    -0.28100
C165        C  0.62560773  0.65367589  0.88882082    -0.04200
C166        C  0.65064661  0.65989078  0.88566535     0.08000
C167        C  0.66019270  0.63476975  0.91862821     0.01800
H168        H  0.61177885  0.67274617  0.87173304     0.09500
H169        H  0.67862141  0.63779590  0.93048315     0.08600
N170        N  0.55783834  0.59018619  0.98587859    -0.35300
N171        N  0.55915644  0.58907222  0.02699273    -0.27500
C172        C  0.53872537  0.56981242  0.04233911    -0.02700
C173        C  0.52362978  0.55840398  0.00938172     0.05900
C174        C  0.53622309  0.57196550  0.97397021     0.04000
H175        H  0.53533799  0.56390779  0.07508782     0.09100
H176        H  0.53049023  0.56743139  0.94195013     0.07900
N177        N  0.67210722  0.38352625  0.30466665    -0.02600
C178        C  0.68060873  0.33963864  0.29737759     0.00000
C179        C  0.66691270  0.30739682  0.31936202    -0.22900
C180        C  0.64932260  0.33246448  0.34064076    -0.23100
C181        C  0.65313032  0.37916148  0.33127508    -0.00100
H182        H  0.67012502  0.26999095  0.32131841     0.13600
H183        H  0.63632782  0.31847994  0.36267442     0.13700
N184        N  0.68192021  0.69436397  0.17201263    -0.02600
C185        C  0.69319148  0.73631397  0.17651993     0.00000
C186        C  0.68253950  0.76894697  0.15029488    -0.22900
C187        C  0.66429893  0.74600290  0.12883579    -0.23100
C188        C  0.66453973  0.70018733  0.14262763    -0.00100
H189        H  0.68856776  0.80459962  0.14511750     0.13600
H190        H  0.65345322  0.76016833  0.10365469     0.13700
N191        N  0.68838942  0.42735809  0.64902689    -0.02600
C192        C  0.69865923  0.38521449  0.65779923     0.00000
C193        C  0.69318582  0.35332487  0.62656785    -0.22900
C194        C  0.67889301  0.37665253  0.59799314    -0.23100
C195        C  0.67607228  0.42194550  0.61275848    -0.00100
H196        H  0.69978551  0.31763918  0.62389837     0.13600
H197        H  0.67182525  0.36246826  0.56910675     0.13700
N198        N  0.68065094  0.70215555  0.84008008    -0.02600
C199        C  0.68957124  0.74656202  0.83935604     0.00000
C200        C  0.67711523  0.77442824  0.86754360    -0.22900
C201        C  0.66016012  0.74601395  0.88655473    -0.23100
C202        C  0.66270649  0.70195585  0.86899083    -0.00100
H203        H  0.68029535  0.81120971  0.87403514     0.13600
H204        H  0.64789982  0.75596347  0.91146461     0.13700
N205        N  0.61537390  0.45212150  0.39714864    -0.26400
N206        N  0.63739537  0.46636235  0.40804625    -0.34300
C207        C  0.65388341  0.44686483  0.38225068     0.01900
C208        C  0.64172113  0.41825918  0.35421210     0.07900
C209        C  0.61731862  0.42220966  0.36477116    -0.05200
H210        H  0.67338876  0.44780500  0.38740728     0.08600
H211        H  0.60239795  0.40160131  0.35238269     0.09800
Cu212      Cu  0.64440843  0.49441565  0.46651403     0.44200
Cu213      Cu  0.58469332  0.46870809  0.43195170     0.42000
Cu214      Cu  0.59427553  0.50028838  0.54057266     0.43900
N215        N  0.64872786  0.48862304  0.53053909    -0.33800
N216        N  0.63060060  0.48869906  0.55771324    -0.28100
C217        C  0.63883154  0.47086854  0.59401265    -0.04200
C218        C  0.66323413  0.45901018  0.58946224     0.08000
C219        C  0.66872139  0.47070207  0.54877989     0.01800
H220        H  0.62716963  0.46127669  0.61978578     0.09500
H221        H  0.68500903  0.46055167  0.53196277     0.08600
N222        N  0.56068844  0.50673112  0.51014979    -0.35300
N223        N  0.55764636  0.49551807  0.47044247    -0.27500
C224        C  0.53472186  0.50600912  0.45892334    -0.02700
C225        C  0.52252368  0.52422722  0.49298571     0.05900
C226        C  0.53948029  0.52408337  0.52507615     0.04000
H227        H  0.52754384  0.50108897  0.42781599     0.09100
H228        H  0.53684297  0.53699074  0.55648565     0.07900
N229        N  0.91190985  0.14853885  0.88835134    -0.26400
N230        N  0.88920930  0.13552417  0.89558207    -0.34300
C231        C  0.87418079  0.15941371  0.87025499     0.01900
C232        C  0.88796846  0.18972434  0.84638515     0.07900
C233        C  0.91187214  0.18205099  0.85880883    -0.05200
H234        H  0.85455562  0.15992913  0.87350379     0.08600
H235        H  0.92770736  0.20225713  0.84985384     0.09800
Cu236      Cu  0.87918118  0.10266052  0.95035402     0.44200
Cu237      Cu  0.94050182  0.12470921  0.92518687     0.42000
Cu238      Cu  0.92481513  0.08880375  0.03120597     0.43900
N239        N  0.87155914  0.10523411  0.01353042    -0.33800
N240        N  0.88813254  0.10278556  0.04342158    -0.28100
C241        C  0.87849077  0.12062102  0.07877056    -0.04200
C242        C  0.85484736  0.13533082  0.07056061     0.08000
C243        C  0.85118101  0.12465797  0.02899787     0.01800
H244        H  0.88901831  0.12880440  0.10638662     0.09500
H245        H  0.83624257  0.13704947  0.00985888     0.08600
N246        N  0.95916408  0.07899776  0.00452562    -0.35300
N247        N  0.96438661  0.09126827  0.96580356    -0.27500
C248        C  0.98716345  0.07714230  0.95668030    -0.02700
C249        C  0.99695201  0.05545350  0.99133200     0.05900
C250        C  0.97877934  0.05742265  0.02125174     0.04000
H251        H  0.99588487  0.08204163  0.92680789     0.09100
H252        H  0.97944563  0.04283140  0.05230649     0.07900
N253        N  0.83262341  0.17313687  0.13098116    -0.02600
C254        C  0.82250063  0.21603271  0.13742786     0.00000
C255        C  0.82533877  0.24361753  0.10238037    -0.22900
C256        C  0.83775379  0.21695528  0.07362540    -0.23100
C257        C  0.84210820  0.17397819  0.09203837    -0.00100
H258        H  0.81826031  0.27866495  0.09762566     0.13600
H259        H  0.84283528  0.22758123  0.04249609     0.13700
N260        N  0.85260138  0.89821604  0.32035932    -0.02600
C261        C  0.84484547  0.85312871  0.31618388     0.00000
C262        C  0.85420641  0.82621617  0.34837797    -0.22900
C263        C  0.86821917  0.85551931  0.37267435    -0.23100
C264        C  0.86683960  0.89935662  0.35473838    -0.00100
H265        H  0.85017934  0.78980609  0.35488961     0.13600
H266        H  0.87725754  0.84647504  0.40153768     0.13700
N267        N  0.85751274  0.23179239  0.80219203    -0.02600
C268        C  0.85042990  0.27722342  0.79867287     0.00000
C269        C  0.86654672  0.30591076  0.82001697    -0.22900
C270        C  0.88421892  0.27707223  0.83680903    -0.23100
C271        C  0.87804253  0.23173373  0.82565815    -0.00100
H272        H  0.86494595  0.34342788  0.82461695     0.13600
H273        H  0.89871853  0.28766499  0.85769213     0.13700
N274        N  0.83728195  0.92488563  0.66723157    -0.02600
C275        C  0.82873662  0.88083580  0.67359945     0.00000
C276        C  0.84196881  0.84903276  0.64994264    -0.22900
C277        C  0.85882435  0.87452343  0.62780214    -0.23100
C278        C  0.85556470  0.92088478  0.63909358    -0.00100
H279        H  0.83869918  0.81170030  0.64716348     0.13600
H280        H  0.87108965  0.86109182  0.60421136     0.13700
N281        N  0.89607178  0.99277370  0.57878746    -0.26400
N282        N  0.87592105  0.99484880  0.55632121    -0.34300
C283        C  0.85760916  0.97517257  0.57781016     0.01900
C284        C  0.86647688  0.95997234  0.61581432     0.07900
C285        C  0.89105471  0.97134892  0.61514456    -0.05200
H286        H  0.84016712  0.96599748  0.56425155     0.08600
H287        H  0.90476459  0.95979214  0.63711364     0.09800
Cu288      Cu  0.87622891  0.00630805  0.49270774     0.44200
Cu289      Cu  0.92996610  0.00895872  0.55368374     0.42000
Cu290      Cu  0.93502253  0.00294641  0.44069138     0.43900
N291        N  0.88104262  0.98637546  0.43123031    -0.33800
N292        N  0.90255307  0.98203879  0.41300422    -0.28100
C293        C  0.90005742  0.95487138  0.37888224    -0.04200
C294        C  0.87582042  0.94203857  0.37522299     0.08000
C295        C  0.86438767  0.96257106  0.40896847     0.01800
H296        H  0.91516834  0.94078550  0.36112644     0.09500
H297        H  0.84617815  0.95477989  0.41995342     0.08600
N298        N  0.96319875  0.02477190  0.47938776    -0.35300
N299        N  0.96106887  0.02712639  0.52039410    -0.27500
C300        C  0.98179944  0.04451212  0.53650049    -0.02700
C301        C  0.99780669  0.05351531  0.50422673     0.05900
C302        C  0.98547946  0.04042958  0.46837514     0.04000
H303        H  0.98483054  0.05064269  0.56935895     0.09100
H304        H  0.99197888  0.04297802  0.43665140     0.07900
C305        C  0.82047599  0.12529006  0.77310490    -0.21600
C306        C  0.83598290  0.10445809  0.74356909     0.10400
C307        C  0.85719958  0.12834940  0.73072481     0.10800
C308        C  0.86308340  0.17142089  0.74923706    -0.16500
C309        C  0.84826974  0.19142818  0.78015046    -0.27000
C310        C  0.82646502  0.16855676  0.79179633     0.19100
C311        C  0.83145662  0.05577575  0.72908437     0.13100
C312        C  0.87405591  0.10758512  0.69842287    -0.11300
H313        H  0.87982637  0.18910901  0.74067621     0.13300
C314        C  0.80996008  0.18748959  0.82527646    -0.22100
H315        H  0.80424572  0.10671987  0.78298903     0.09000
C316        C  0.84321168  0.01762975  0.74866149     0.05300
C317        C  0.84343637  0.97369455  0.72884557    -0.19400
C318        C  0.83172256  0.96679372  0.69047054    -0.11700
C319        C  0.81829800  0.00393973  0.67262707     0.14000
C320        C  0.81844761  0.04826466  0.69199789    -0.22100
C321        C  0.85650074  0.02393572  0.78944233    -0.05200
H322        H  0.85394169  0.94515861  0.74207956     0.15600
C323        C  0.80435000  0.99795630  0.63261679    -0.15300
H324        H  0.80934775  0.07756048  0.67711582     0.09900
H325        H  0.80775761  0.16079957  0.85010899     0.07700
H326        H  0.79179448  0.19555918  0.81171716     0.08900
H327        H  0.81721679  0.21971460  0.84010644     0.08000
H328        H  0.86393580  0.10194122  0.66884835     0.02900
H329        H  0.88137659  0.07346530  0.70944156     0.03300
H330        H  0.88976175  0.13101316  0.69187602     0.06800
H331        H  0.86462599  0.99047830  0.80049831     0.05800
H332        H  0.84356535  0.03667338  0.81357041     0.00100
H333        H  0.87143718  0.04988426  0.78590142     0.01500
H334        H  0.78484755  0.00659560  0.63797381     0.05200
H335        H  0.80530604  0.96150264  0.62045652     0.07100
H336        H  0.81176346  0.02207926  0.60868609     0.08000
C337        C  0.82203344  0.05760482  0.18420664    -0.21600
C338        C  0.83882571  0.06035611  0.21708903     0.10400
C339        C  0.85332497  0.10102503  0.22175358     0.10800
C340        C  0.85046749  0.13821810  0.19348984    -0.16500
C341        C  0.83396044  0.13507286  0.16022365    -0.27000
C342        C  0.81947699  0.09440843  0.15560148     0.19100
C343        C  0.84190093  0.01885055  0.24439023     0.13100
C344        C  0.87230400  0.10458744  0.25559971    -0.11300
H345        H  0.86155325  0.16950161  0.19656055     0.13300
C346        C  0.80104129  0.08903157  0.12113073    -0.22100
H347        H  0.81103286  0.02625113  0.18058356     0.09000
C348        C  0.82967090  0.01484788  0.28290633     0.05300
C349        C  0.83325367  0.97445649  0.30722434    -0.19400
C350        C  0.84813064  0.93748946  0.29324685    -0.11700
C351        C  0.85998445  0.94124876  0.25435066     0.14000
C352        C  0.85671877  0.98189599  0.23042017    -0.22100
C353        C  0.81250763  0.05262306  0.29786882    -0.05200
H354        H  0.82432612  0.97133017  0.33718072     0.15600
C355        C  0.87666556  0.90360967  0.23769762    -0.15300
H356        H  0.86591529  0.98492607  0.20065462     0.09900
H357        H  0.78268563  0.08321880  0.13478439     0.07700
H358        H  0.80592295  0.05829125  0.10148624     0.08900
H359        H  0.79994934  0.12035909  0.10083776     0.08000
H360        H  0.88581241  0.07579692  0.25201110     0.02900
H361        H  0.86361013  0.10184919  0.28665834     0.03300
H362        H  0.88224645  0.13850888  0.25433890     0.06800
H363        H  0.80423008  0.04357670  0.32837231     0.05800
H364        H  0.79754568  0.05728429  0.27490055     0.00100
H365        H  0.82236078  0.08633975  0.30155177     0.01500
H366        H  0.86935465  0.89017165  0.20767289     0.05200
H367        H  0.87876163  0.87354035  0.25916182     0.07100
H368        H  0.89507565  0.91861170  0.23230751     0.08000
C369        C  0.75229308  0.77270619  0.79453978    -0.21600
C370        C  0.74669354  0.80839238  0.76608512     0.10400
C371        C  0.72214208  0.82229397  0.76069528     0.10800
C372        C  0.70379029  0.79987715  0.78373131    -0.16500
C373        C  0.70939939  0.76430728  0.81234008    -0.27000
C374        C  0.73403872  0.75146635  0.81862568     0.19100
C375        C  0.76690358  0.83078409  0.74260563     0.13100
C376        C  0.71535443  0.86197198  0.73197198    -0.11300
H377        H  0.68497905  0.81092892  0.78017083     0.13300
C378        C  0.74141146  0.71780772  0.85242471    -0.22100
H379        H  0.77116240  0.76226908  0.79863539     0.09000
C380        C  0.78480162  0.85868904  0.76253749     0.05300
C381        C  0.80449698  0.87614250  0.73922330    -0.19400
C382        C  0.80609195  0.86814188  0.69617051    -0.11700
C383        C  0.78707934  0.84326334  0.67585305     0.14000
C384        C  0.76830398  0.82346580  0.69953271    -0.22100
C385        C  0.78299026  0.87060590  0.80820152    -0.05200
H386        H  0.81897115  0.89487447  0.75498017     0.15600
C387        C  0.78560333  0.83778836  0.62914896    -0.15300
H388        H  0.75444079  0.80253611  0.68411792     0.09900
H389        H  0.76155687  0.71475770  0.85508829     0.07700
H390        H  0.73424330  0.68251325  0.84547123     0.08900
H391        H  0.73425869  0.73010051  0.88292500     0.08000
H392        H  0.71993156  0.85273871  0.69932027     0.02900
H393        H  0.72540726  0.89421081  0.74115567     0.03300
H394        H  0.69551815  0.86984425  0.73320916     0.06800
H395        H  0.79792811  0.89440110  0.81827476     0.05800
H396        H  0.78414208  0.83830830  0.82727252     0.00100
H397        H  0.76535718  0.88853377  0.81441454     0.01500
H398        H  0.78763654  0.80020067  0.62059230     0.05200
H399        H  0.79952400  0.85853624  0.61234624     0.07100
H400        H  0.76754219  0.85041407  0.61813144     0.08000
C401        C  0.67893048  0.62661112  0.74426721    -0.21600
C402        C  0.69121029  0.58651878  0.75816303     0.10400
C403        C  0.70205797  0.58634383  0.79806398     0.10800
C404        C  0.69829689  0.62489331  0.82467961    -0.16500
C405        C  0.68554652  0.66475744  0.81108557    -0.27000
C406        C  0.67599835  0.66582044  0.77016217     0.19100
C407        C  0.69095999  0.54448695  0.73104995     0.13100
C408        C  0.71807075  0.54629374  0.81200621    -0.11300
H409        H  0.70530081  0.62407700  0.85624121     0.13300
C410        C  0.66158840  0.70666187  0.75343684    -0.22100
H411        H  0.67083605  0.62667203  0.71341486     0.09000
C412        C  0.67450204  0.50727074  0.73832933     0.05300
C413        C  0.67413508  0.46898703  0.71078598    -0.19400
C414        C  0.68888057  0.46827333  0.67520967    -0.11700
C415        C  0.70434229  0.50666726  0.66668114     0.14000
C416        C  0.70547646  0.54407544  0.69511932    -0.22100
C417        C  0.65654160  0.50891690  0.77388656    -0.05200
H418        H  0.66201659  0.43968141  0.71645284     0.15600
C419        C  0.71990043  0.50899621  0.62812518    -0.15300
H420        H  0.71747853  0.57345402  0.68894545     0.09900
H421        H  0.64328381  0.69437679  0.74337114     0.07700
H422        H  0.67122231  0.72170884  0.72615677     0.08900
H423        H  0.65877042  0.73492188  0.77663892     0.08000
H424        H  0.73366275  0.54252909  0.79018334     0.02900
H425        H  0.70774661  0.51290793  0.81243340     0.03300
H426        H  0.72553591  0.55246065  0.84374458     0.06800
H427        H  0.64448325  0.47761543  0.77402148     0.05800
H428        H  0.64483552  0.54057066  0.77093708     0.00100
H429        H  0.66618823  0.51025337  0.80420115     0.01500
H430        H  0.71451231  0.54001824  0.60939067     0.05200
H431        H  0.71811964  0.47733180  0.60821063     0.07100
H432        H  0.73937850  0.51259884  0.63712565     0.08000
C433        C  0.73725069  0.32154357  0.73794727    -0.21600
C434        C  0.75861434  0.34843430  0.73654674     0.10400
C435        C  0.75863081  0.39137569  0.71484579     0.10800
C436        C  0.73788919  0.40457621  0.69213529    -0.16500
C437        C  0.71705139  0.37605470  0.69081420    -0.27000
C438        C  0.71635085  0.33504152  0.71561579     0.19100
C439        C  0.78153016  0.32864168  0.75358970     0.13100
C440        C  0.78088014  0.42239017  0.71432629    -0.11300
H441        H  0.73876172  0.43542608  0.67285955     0.13300
C442        C  0.69405571  0.30437735  0.71863198    -0.22100
H443        H  0.73718384  0.28890582  0.75525401     0.09000
C444        C  0.78745236  0.33141999  0.79623627     0.05300
C445        C  0.81004308  0.31393632  0.80989025    -0.19400
C446        C  0.82677303  0.29371654  0.78185586    -0.11700
C447        C  0.82085464  0.29143624  0.73906924     0.14000
C448        C  0.79811403  0.30819468  0.72563208    -0.22100
C449        C  0.77013491  0.35337984  0.82705231    -0.05200
H450        H  0.81473046  0.31604572  0.84266611     0.15600
C451        C  0.83841095  0.27388606  0.70649959    -0.15300
H452        H  0.79355286  0.30667787  0.69277363     0.09900
H453        H  0.68877690  0.30062193  0.75184692     0.07700
H454        H  0.69818151  0.26908812  0.70563086     0.08900
H455        H  0.67811260  0.31913183  0.70190026     0.08000
H456        H  0.79643733  0.40351273  0.69981701     0.02900
H457        H  0.78580835  0.43242501  0.74671270     0.03300
H458        H  0.77765563  0.45507087  0.69635041     0.06800
H459        H  0.77772087  0.35312664  0.85916073     0.05800
H460        H  0.75268947  0.33363567  0.82725599     0.00100
H461        H  0.76648317  0.39038120  0.81822652     0.01500
H462        H  0.83074720  0.24221881  0.69108373     0.05200
H463        H  0.85655482  0.26502385  0.71947212     0.07100
H464        H  0.84122559  0.30156119  0.68270260     0.08000
C465        C  0.80574465  0.77054868  0.25144698    -0.21600
C466        C  0.78404320  0.79630874  0.24874778     0.10400
C467        C  0.78356569  0.84326967  0.26292184     0.10800
C468        C  0.80420634  0.86209193  0.28268588    -0.16500
C469        C  0.82570648  0.83577306  0.28712263    -0.27000
C470        C  0.82679908  0.79013622  0.26930836     0.19100
C471        C  0.76201703  0.77414654  0.23043987     0.13100
C472        C  0.76124445  0.87350801  0.25722348    -0.11300
H473        H  0.80301605  0.89673119  0.29645732     0.13300
C474        C  0.84991351  0.76145295  0.26786987    -0.22100
H475        H  0.80630677  0.73498706  0.23925296     0.09000
C476        C  0.75936072  0.76892129  0.18699538     0.05300
C477        C  0.73698802  0.75357104  0.17079096    -0.19400
C478        C  0.71705876  0.74417663  0.19688874    -0.11700
C479        C  0.71996095  0.74796290  0.24053910     0.14000
C480        C  0.74261795  0.76198817  0.25679041    -0.22100
C481        C  0.77972314  0.78159007  0.15765462    -0.05200
H482        H  0.73467275  0.75075041  0.13731672     0.15600
C483        C  0.69933602  0.74051074  0.27064524    -0.15300
H484        H  0.74475662  0.76608289  0.29020451     0.09900
H485        H  0.85365635  0.75078683  0.23517899     0.07700
H486        H  0.84772523  0.72941730  0.28710974     0.08900
H487        H  0.86610867  0.78117474  0.27885300     0.08000
H488        H  0.74557599  0.85831743  0.27434287     0.02900
H489        H  0.75665621  0.87570665  0.22357461     0.03300
H490        H  0.76421308  0.90975936  0.26901524     0.06800
H491        H  0.77433885  0.77655523  0.12456952     0.05800
H492        H  0.79585850  0.75909405  0.16381860     0.00100
H493        H  0.78481061  0.81898575  0.16211615     0.01500
H494        H  0.70351158  0.71010338  0.29100767     0.05200
H495        H  0.68180636  0.73414195  0.25472310     0.07100
H496        H  0.69698448  0.77233918  0.29030463     0.08000
C497        C  0.66935080  0.48702930  0.23345593    -0.21600
C498        C  0.68832021  0.51484371  0.24911858     0.10400
C499        C  0.70263640  0.49823455  0.28261836     0.10800
C500        C  0.69812300  0.45311621  0.29861483    -0.16500
C501        C  0.67873666  0.42590274  0.28344319    -0.27000
C502        C  0.66395860  0.44341501  0.25089176     0.19100
C503        C  0.69002663  0.56345503  0.23330536     0.13100
C504        C  0.72138483  0.52913778  0.30327139    -0.11300
H505        H  0.70872623  0.44005485  0.32462730     0.13300
C506        C  0.64180558  0.41773893  0.23484223    -0.22100
H507        H  0.65790086  0.50052350  0.20863409     0.09000
C508        C  0.70657037  0.57651314  0.20166116     0.05300
C509        C  0.70468020  0.62143956  0.18379373    -0.19400
C510        C  0.68585568  0.65214818  0.19539699    -0.11700
C511        C  0.66901572  0.63841442  0.22635100     0.14000
C512        C  0.67176870  0.59489539  0.24572248    -0.22100
C513        C  0.72504303  0.54216266  0.18488505    -0.05200
H514        H  0.71693662  0.63170035  0.15898058     0.15600
C515        C  0.64725942  0.66786873  0.23837719    -0.15300
H516        H  0.65862673  0.58417072  0.26906804     0.09900
H517        H  0.64334818  0.41262856  0.20063417     0.07700
H518        H  0.62521959  0.43893247  0.24133317     0.08900
H519        H  0.63942679  0.38273665  0.24918149     0.08000
H520        H  0.71243204  0.56134777  0.31546688     0.02900
H521        H  0.73568770  0.53931453  0.28071986     0.03300
H522        H  0.73041005  0.51107509  0.32976049     0.06800
H523        H  0.73596235  0.55765164  0.15925805     0.05800
H524        H  0.71556272  0.51064712  0.17248566     0.00100
H525        H  0.73780596  0.53126071  0.20981689     0.01500
H526        H  0.63024979  0.64813651  0.23155478     0.05200
H527        H  0.64634672  0.70165614  0.22147935     0.07100
H528        H  0.64796817  0.67573067  0.27226370     0.08000
C529        C  0.72635591  0.29992502  0.21590265    -0.21600
C530        C  0.74623714  0.28764615  0.24116559     0.10400
C531        C  0.74522038  0.29661303  0.28438701     0.10800
C532        C  0.72397723  0.31649587  0.30146177    -0.16500
C533        C  0.70377629  0.32741460  0.27633612    -0.27000
C534        C  0.70503089  0.31922269  0.23301099     0.19100
C535        C  0.76769732  0.26517247  0.22120895     0.13100
C536        C  0.76609408  0.28353943  0.31261845    -0.11300
H537        H  0.72275455  0.32203873  0.33483352     0.13300
C538        C  0.68384340  0.32978250  0.20481384    -0.22100
H539        H  0.72741681  0.29351660  0.18263354     0.09000
C540        C  0.76641253  0.21925263  0.20458869     0.05300
C541        C  0.78580254  0.20212015  0.18042019    -0.19400
C542        C  0.80642856  0.22973116  0.17250363    -0.11700
C543        C  0.80849730  0.27423909  0.19196145     0.14000
C544        C  0.78899196  0.29157089  0.21573236    -0.22100
C545        C  0.74434224  0.18874762  0.21139864    -0.05200
H546        H  0.78398017  0.16837991  0.16522480     0.15600
C547        C  0.83084311  0.30460544  0.18770176    -0.15300
H548        H  0.79007892  0.32662336  0.22890228     0.09900
H549        H  0.66718374  0.31168078  0.21602478     0.07700
H550        H  0.68735866  0.31814354  0.17230484     0.08900
H551        H  0.68084435  0.36812750  0.20418500     0.08000
H552        H  0.78269147  0.30338306  0.30377468     0.02900
H553        H  0.76982887  0.24533035  0.30996190     0.03300
H554        H  0.76197301  0.29166615  0.34574311     0.06800
H555        H  0.74669393  0.15341174  0.19720449     0.05800
H556        H  0.72797466  0.20508730  0.19715426     0.00100
H557        H  0.74125315  0.18417223  0.24531919     0.01500
H558        H  0.82597455  0.33762746  0.17138194     0.05200
H559        H  0.84577548  0.28700594  0.17037803     0.07100
H560        H  0.83798985  0.31340227  0.21915653     0.08000
C561        C  0.35148960  0.48616047  0.76961990    -0.21600
C562        C  0.33458432  0.52287926  0.77330398     0.10400
C563        C  0.31812610  0.52345657  0.80711831     0.10800
C564        C  0.31981275  0.48844651  0.83770184    -0.16500
C565        C  0.33664236  0.45162345  0.83389977    -0.27000
C566        C  0.35250786  0.45016454  0.79929274     0.19100
C567        C  0.33515246  0.56133306  0.74233470     0.13100
C568        C  0.29845859  0.56025901  0.81026816    -0.11300
H569        H  0.30749460  0.48881326  0.86408115     0.13300
C570        C  0.37074508  0.41123484  0.79307468    -0.22100
H571        H  0.36401738  0.48569195  0.74348989     0.09000
C572        C  0.34873229  0.60255756  0.74985821     0.05300
C573        C  0.34879013  0.63831055  0.71993576    -0.19400
C574        C  0.33595625  0.63345285  0.68242401    -0.11700
C575        C  0.32255813  0.59195476  0.67461033     0.14000
C576        C  0.32235116  0.55626691  0.70472662    -0.22100
C577        C  0.36346297  0.60844968  0.78917483    -0.05200
H578        H  0.35910856  0.67014906  0.72544279     0.15600
C579        C  0.30786845  0.58486187  0.63545127    -0.15300
H580        H  0.31201185  0.52447101  0.69900662     0.09900
H581        H  0.38940979  0.42623100  0.79159809     0.07700
H582        H  0.36678600  0.39267995  0.76335136     0.08900
H583        H  0.37044696  0.38509411  0.81855807     0.08000
H584        H  0.28649232  0.55827775  0.78237130     0.02900
H585        H  0.30670198  0.59574370  0.81206099     0.03300
H586        H  0.28691869  0.55516154  0.83831462     0.06800
H587        H  0.37326396  0.64254241  0.78982800     0.05800
H588        H  0.37720687  0.57990199  0.79139083     0.00100
H589        H  0.35131737  0.60703763  0.81676460     0.01500
H590        H  0.31509718  0.55413573  0.61800725     0.05200
H591        H  0.30824802  0.61582833  0.61467697     0.07100
H592        H  0.28852412  0.57814353  0.64372042     0.08000
C593        C  0.35503483  0.46211766  0.27041769    -0.21600
C594        C  0.33827147  0.48905958  0.24778887     0.10400
C595        C  0.32732053  0.46992193  0.21172794     0.10800
C596        C  0.33355820  0.42414419  0.19900172    -0.16500
C597        C  0.35162795  0.39858822  0.22001797    -0.27000
C598        C  0.36244053  0.41780729  0.25625954     0.19100
C599        C  0.33646966  0.53964059  0.25825659     0.13100
C600        C  0.31012767  0.49870187  0.18560787    -0.11300
H601        H  0.32550596  0.40930245  0.17109886     0.13300
C602        C  0.38304779  0.39408295  0.27903753    -0.22100
H603        H  0.36387636  0.47737935  0.29750032     0.09000
C604        C  0.32002294  0.55735062  0.28828888     0.05300
C605        C  0.32219006  0.60438188  0.30161406    -0.19400
C606        C  0.34068862  0.63335662  0.28590528    -0.11700
C607        C  0.35660744  0.61569128  0.25491915     0.14000
C608        C  0.35410802  0.56933868  0.24122081    -0.22100
C609        C  0.30094138  0.52613300  0.30726257    -0.05200
H610        H  0.31040494  0.61785044  0.32595182     0.15600
C611        C  0.37732825  0.64405557  0.23724458    -0.15300
H612        H  0.36687863  0.55545402  0.21850004     0.09900
H613        H  0.37726749  0.38582661  0.31132714     0.07700
H614        H  0.39904139  0.41794632  0.28027134     0.08900
H615        H  0.38913756  0.36131413  0.26375394     0.08000
H616        H  0.31963193  0.53052178  0.17411176     0.02900
H617        H  0.29414925  0.50950201  0.20455315     0.03300
H618        H  0.30341700  0.47866497  0.15816045     0.06800
H619        H  0.28961048  0.54537751  0.33036339     0.05800
H620        H  0.30985157  0.49620168  0.32332127     0.00100
H621        H  0.28871520  0.51240112  0.28249032     0.01500
H622        H  0.39494448  0.62700935  0.24521219     0.05200
H623        H  0.37778486  0.68057264  0.24910109     0.07100
H624        H  0.37560082  0.64560382  0.20280463     0.08000
C625        C  0.23007670  0.80234427  0.73871049    -0.21600
C626        C  0.25120551  0.79119851  0.76145883     0.10400
C627        C  0.25222195  0.80248828  0.80434840     0.10800
C628        C  0.23198472  0.82392338  0.82342397    -0.16500
C629        C  0.21061590  0.83375662  0.80092575    -0.27000
C630        C  0.20956939  0.82242367  0.75808071     0.19100
C631        C  0.27203920  0.76838427  0.73944426     0.13100
C632        C  0.27415086  0.79012189  0.83048732    -0.11300
H633        H  0.23244979  0.83139715  0.85655674     0.13300
C634        C  0.18685625  0.82902988  0.73231607    -0.22100
H635        H  0.22933621  0.79412300  0.70572931     0.09000
C636        C  0.27048929  0.72231305  0.72300310     0.05300
C637        C  0.28983608  0.70444639  0.69889709    -0.19400
C638        C  0.31089050  0.73112729  0.69137329    -0.11700
C639        C  0.31314913  0.77573376  0.71071740     0.14000
C640        C  0.29351472  0.79411474  0.73355757    -0.22100
C641        C  0.24842193  0.69205394  0.73057456    -0.05200
H642        H  0.28791223  0.67040600  0.68410759     0.15600
C643        C  0.33604751  0.80481817  0.70830305    -0.15300
H644        H  0.29489301  0.82923820  0.74652330     0.09900
H645        H  0.18126487  0.79479719  0.71872006     0.07700
H646        H  0.19060901  0.85403431  0.70666103     0.08900
H647        H  0.17128084  0.84255377  0.75070022     0.08000
H648        H  0.29045197  0.80931910  0.81932755     0.02900
H649        H  0.27762114  0.75176685  0.82860920     0.03300
H650        H  0.27139923  0.79955477  0.86376145     0.06800
H651        H  0.25063838  0.65650403  0.71673673     0.05800
H652        H  0.23198681  0.70824995  0.71645504     0.00100
H653        H  0.24555091  0.68794509  0.76460154     0.01500
H654        H  0.33220322  0.83792628  0.69134799     0.05200
H655        H  0.35128878  0.78623094  0.69270959     0.07100
H656        H  0.34230232  0.81357961  0.74032415     0.08000
C657        C  0.20346486  0.01151276  0.80472593    -0.21600
C658        C  0.18778292  0.02394071  0.77196098     0.10400
C659        C  0.17230186  0.98959265  0.75437883     0.10800
C660        C  0.17102180  0.94505537  0.77273207    -0.16500
C661        C  0.18562172  0.93335565  0.80705691    -0.27000
C662        C  0.20273702  0.96627522  0.82217422     0.19100
C663        C  0.18583024  0.07377598  0.75890866     0.13100
C664        C  0.15676591  0.00036376  0.71680127    -0.11300
H665        H  0.15774630  0.91989244  0.76150798     0.13300
C666        C  0.21981985  0.95493966  0.85742458    -0.22100
H667        H  0.21565914  0.03767234  0.81773565     0.09000
C668        C  0.16657230  0.10225285  0.77369943     0.05300
C669        C  0.16284302  0.14661969  0.75606495    -0.19400
C670        C  0.17835113  0.16401277  0.72502794    -0.11700
C671        C  0.19853980  0.13682162  0.71210579     0.14000
C672        C  0.20196071  0.09168557  0.72900064    -0.22100
C673        C  0.14969928  0.08547547  0.80760384    -0.05200
H674        H  0.14728549  0.16754898  0.76558058     0.15600
C675        C  0.21592311  0.15464612  0.67961819    -0.15300
H676        H  0.21681259  0.06977378  0.71803587     0.09900
H677        H  0.21670090  0.97971759  0.88364127     0.07700
H678        H  0.23895256  0.95854915  0.84657519     0.08900
H679        H  0.21738630  0.91869024  0.86915351     0.08000
H680        H  0.16865319  0.01106442  0.69050692     0.02900
H681        H  0.14382604  0.02926765  0.72386829     0.03300
H682        H  0.14600712  0.96933646  0.70667830     0.06800
H683        H  0.13579262  0.11237646  0.81571772     0.05800
H684        H  0.16043401  0.07759184  0.83609628     0.00100
H685        H  0.13996983  0.05327103  0.79749523     0.01500
H686        H  0.22589552  0.18545259  0.69195773     0.05200
H687        H  0.20589243  0.16489095  0.65103263     0.07100
H688        H  0.22966420  0.12764774  0.67099184     0.08000
C689        C  0.28959504  0.29691088  0.78414881    -0.21600
C690        C  0.26820510  0.32345068  0.78019795     0.10400
C691        C  0.26726151  0.36919862  0.79713080     0.10800
C692        C  0.28705321  0.38589095  0.82060956    -0.16500
C693        C  0.30796666  0.35830892  0.82671807    -0.27000
C694        C  0.30963418  0.31401485  0.80677163     0.19100
C695        C  0.24641355  0.30160530  0.76089278     0.13100
C696        C  0.24514653  0.39991149  0.79120125    -0.11300
H697        H  0.28544307  0.41933674  0.83643853     0.13300
C698        C  0.33215188  0.28373671  0.80915024    -0.22100
H699        H  0.29043180  0.26213300  0.77036957     0.09000
C700        C  0.24342010  0.29918103  0.71734455     0.05300
C701        C  0.22169871  0.28074723  0.70093205    -0.19400
C702        C  0.20310741  0.26399195  0.72706310    -0.11700
C703        C  0.20626422  0.26593162  0.77071116     0.14000
C704        C  0.22803678  0.28425533  0.78704976    -0.22100
C705        C  0.26289720  0.31689210  0.68834595    -0.05200
H706        H  0.21904707  0.27978084  0.66745830     0.15600
C707        C  0.18671235  0.25131728  0.80091171    -0.15300
H708        H  0.23041444  0.28638272  0.82054805     0.09900
H709        H  0.33857083  0.27556091  0.77713380     0.07700
H710        H  0.32776521  0.25040055  0.82530543     0.08900
H711        H  0.34744219  0.30106767  0.82574705     0.08000
H712        H  0.22888988  0.38310753  0.80529316     0.02900
H713        H  0.24185655  0.40526240  0.75740548     0.03300
H714        H  0.24757313  0.43492064  0.80597405     0.06800
H715        H  0.25750277  0.31282103  0.65516118     0.05800
H716        H  0.28003298  0.29686482  0.69332323     0.00100
H717        H  0.26632727  0.35469171  0.69446613     0.01500
H718        H  0.19342643  0.22157654  0.82004637     0.05200
H719        H  0.16960305  0.24050004  0.78530337     0.07100
H720        H  0.18221333  0.28123747  0.82180092     0.08000
C721        C  0.29340279  0.76574164  0.21629834    -0.21600
C722        C  0.27447097  0.77975131  0.24297391     0.10400
C723        C  0.27568950  0.76836549  0.28569693     0.10800
C724        C  0.29650388  0.74551375  0.30112427    -0.16500
C725        C  0.31592645  0.73329045  0.27477889    -0.27000
C726        C  0.31413637  0.74252139  0.23173472     0.19100
C727        C  0.25319692  0.80479992  0.22508491     0.13100
C728        C  0.25545545  0.78170189  0.31521057    -0.11300
H729        H  0.29811717  0.73885148  0.33426092     0.13300
C730        C  0.33409068  0.72828232  0.20219487    -0.22100
H731        H  0.29200653  0.77344357  0.18332467     0.09000
C732        C  0.25451321  0.85215820  0.21221296     0.05300
C733        C  0.23430913  0.87276077  0.19228107    -0.19400
C734        C  0.21269907  0.84734247  0.18609041    -0.11700
C735        C  0.21095939  0.80093299  0.20182167     0.14000
C736        C  0.23140046  0.78004667  0.22011874    -0.22100
C737        C  0.27715309  0.88085289  0.21965619    -0.05200
H738        H  0.23557421  0.90833730  0.18061508     0.15600
C739        C  0.18766805  0.77273664  0.20114748    -0.15300
H740        H  0.23030039  0.74400512  0.23078639     0.09900
H741        H  0.35159395  0.74472209  0.21166353     0.07700
H742        H  0.32999585  0.73911807  0.16971622     0.08900
H743        H  0.33594650  0.68954800  0.20247116     0.08000
H744        H  0.23832319  0.76367929  0.30608171     0.02900
H745        H  0.25253467  0.82026058  0.31443752     0.03300
H746        H  0.25976138  0.77152839  0.34778015     0.06800
H747        H  0.27492450  0.91747352  0.20848271     0.05800
H748        H  0.29285984  0.86496283  0.20299057     0.00100
H749        H  0.28119394  0.88208198  0.25355385     0.01500
H750        H  0.19017706  0.74095757  0.18149969     0.05200
H751        H  0.17175113  0.79268480  0.18941219     0.07100
H752        H  0.18314669  0.76164986  0.23337357     0.08000
C753        C  0.20057129  0.10092853  0.28172276    -0.21600
C754        C  0.19164216  0.05564025  0.29051530     0.10400
C755        C  0.18513037  0.04597215  0.33251815     0.10800
C756        C  0.19136087  0.07813854  0.36394908    -0.16500
C757        C  0.19806197  0.12459623  0.35465888    -0.27000
C758        C  0.20032836  0.13667820  0.31202040     0.19100
C759        C  0.18988955  0.01920748  0.25625883     0.13100
C760        C  0.16990893  0.00441857  0.34557762    -0.11300
H761        H  0.18952833  0.06706608  0.39591894     0.13300
C762        C  0.19953780  0.18647002  0.29661812    -0.22100
H763        H  0.20598401  0.10988769  0.25033547     0.09000
C764        C  0.18301950  0.02974276  0.21458205     0.05300
C765        C  0.18430510  0.99441482  0.18398409    -0.19400
C766        C  0.18575076  0.94654718  0.19462211    -0.11700
C767        C  0.18943466  0.93582218  0.23740720     0.14000
C768        C  0.19525093  0.97201983  0.26546916    -0.22100
C769        C  0.17199737  0.07589111  0.20128497    -0.05200
H770        H  0.18238106  0.00482859  0.15191519     0.15600
C771        C  0.18402195  0.88873224  0.25637491    -0.15300
H772        H  0.20128398  0.96254990  0.29645563     0.09900
H773        H  0.18468789  0.18998247  0.27325588     0.07700
H774        H  0.21705336  0.19572562  0.28140158     0.08900
H775        H  0.19522746  0.21177123  0.32181317     0.08000
H776        H  0.18113974  0.97971707  0.36420482     0.02900
H777        H  0.16145994  0.98578669  0.31889911     0.03300
H778        H  0.15447263  0.01682880  0.36515357     0.06800
H779        H  0.15515758  0.06912272  0.18292009     0.05800
H780        H  0.18507268  0.09532525  0.18139022     0.00100
H781        H  0.16614896  0.09800176  0.22788357     0.01500
H782        H  0.20111135  0.87219206  0.26778558     0.05200
H783        H  0.17424982  0.86519402  0.23460581     0.07100
H784        H  0.17158042  0.89345386  0.28337431     0.08000
C785        C  0.32153804  0.25505246  0.30157032    -0.21600
C786        C  0.29791240  0.25573990  0.28477488     0.10400
C787        C  0.29401687  0.27660862  0.24539924     0.10800
C788        C  0.31377871  0.29692405  0.22417636    -0.16500
C789        C  0.33749012  0.29537279  0.24061950    -0.27000
C790        C  0.34146240  0.27356972  0.27962899     0.19100
C791        C  0.27735488  0.23699872  0.31001835     0.13100
C792        C  0.26923724  0.27579785  0.22499501    -0.11300
H793        H  0.31088941  0.31254636  0.19380943     0.13300
C794        C  0.36634318  0.26916887  0.29923297    -0.22100
H795        H  0.32449504  0.23965645  0.33201379     0.09000
C796        C  0.27460147  0.18861925  0.31884858     0.05300
C797        C  0.25524417  0.17371193  0.34452883    -0.19400
C798        C  0.23833273  0.20604139  0.36065452    -0.11700
C799        C  0.24059854  0.25417755  0.35001415     0.14000
C800        C  0.26036366  0.26897551  0.32592665    -0.22100
C801        C  0.29191805  0.15282004  0.30095482    -0.05200
H802        H  0.25355706  0.13695620  0.35265637     0.15600
C803        C  0.22212552  0.29099580  0.36241768    -0.15300
H804        H  0.26239951  0.30604096  0.31906310     0.09900
H805        H  0.37053718  0.23152265  0.30455896     0.07700
H806        H  0.36650463  0.28786100  0.32964221     0.08900
H807        H  0.38110576  0.28381376  0.27980032     0.08000
H808        H  0.25591286  0.29599834  0.24386057     0.02900
H809        H  0.26287690  0.23894829  0.22190846     0.03300
H810        H  0.26968783  0.29153109  0.19339275     0.06800
H811        H  0.28668262  0.11654290  0.30978667     0.05800
H812        H  0.31068102  0.15924913  0.31260097     0.00100
H813        H  0.29179968  0.15511941  0.26642752     0.01500
H814        H  0.23076439  0.31687693  0.38373083     0.05200
H815        H  0.20574105  0.27632688  0.37771961     0.07100
H816        H  0.21562646  0.30955988  0.33412012     0.08000
loop_ 
_geom_bond_atom_site_label_1 
_geom_bond_atom_site_label_2 
_geom_bond_distance 
_geom_bond_site_symmetry_2 
_ccdc_geom_bond_type 
N1            N2   1.322       .  A
N1            C5   1.348       .  A
N1           Cu9   2.087       .  S
N2            C3   1.341       .  A
N2           Cu8   2.075   1_564  S
C3            C4   1.384       .  A
C3            H6   1.083       .  S
C4            C5   1.387       .  A
C4           C36   1.473       .  S
C5            H7   1.082       .  S
Cu8          N11   2.076   1_545  S
Cu9          N19   2.086   1_565  S
Cu10         N12   2.073       .  S
Cu10         N18   2.074   1_565  S
N11          N12   1.321       .  A
N11          C15   1.345       .  A
N12          C13   1.346       .  A
C13          C14   1.384       .  A
C13          H16   1.082       .  S
C14          C15   1.383       .  A
C14          C50   1.472       .  S
C15          H17   1.081       .  S
N18          N19   1.322   1_556  A
N18          C22   1.343       .  A
N19          C20   1.350       .  A
C20          C21   1.386   1_554  A
C20          H23   1.082       .  S
C21          C22   1.382       .  A
C21         C249   1.474   1_455  S
C22          H24   1.081       .  S
N25          C29   1.369       .  A
N25          C26   1.371       .  A
N25         C757   1.459       .  S
C26          C27   1.381       .  A
C26         C798   1.487       .  S
C27          C28   1.363       .  A
C27          H30   1.083       .  S
C28          C29   1.380       .  A
C28          H31   1.083       .  S
C29          C56   1.479       .  S
N32          C36   1.369       .  A
N32          C33   1.370       .  A
N32         C766   1.463       .  S
C33          C34   1.381       .  A
C33         C734   1.483       .  S
C34          C35   1.363       .  A
C34          H37   1.083       .  S
C35          C36   1.379       .  A
C35          H38   1.083       .  S
N39          C43   1.354       .  A
N39          C40   1.357       .  A
N39         C670   1.442       .  S
C40          C41   1.383       .  A
C40         C702   1.477       .  S
C41          C42   1.376       .  A
C41          H44   1.082       .  S
C42          C43   1.382       .  A
C42          H45   1.082       .  S
C43          C66   1.473       .  S
N46          C50   1.354       .  A
N46          C47   1.357       .  A
N46         C661   1.439       .  S
C47          C48   1.383       .  A
C47         C629   1.479       .  S
C48          C49   1.377       .  A
C48          H51   1.082       .  S
C49          C50   1.381       .  A
C49          H52   1.082       .  S
N53          N54   1.323       .  A
N53          C57   1.354       .  A
N53         Cu61   2.095       .  S
N54          C55   1.338       .  A
N54         Cu60   2.069       .  S
C55          C56   1.380       .  A
C55          H58   1.083       .  S
C56          C57   1.391       .  A
C57          H59   1.082       .  S
Cu60         N63   2.068       .  S
Cu61         N71   2.096       .  S
Cu62         N64   2.061       .  S
Cu62         N70   2.064       .  S
N63          N64   1.318       .  A
N63          C67   1.343       .  A
N64          C65   1.345       .  A
C65          C66   1.385       .  A
C65          H68   1.082       .  S
C66          C67   1.383       .  A
C67          H69   1.080       .  S
N70          N71   1.324       .  A
N70          C74   1.341       .  A
N71          C72   1.350       .  A
C72          C73   1.388       .  A
C72          H75   1.082       .  S
C73          C74   1.379       .  A
C73         C301   1.473   1_455  S
C74          H76   1.081       .  S
N77          C81   1.355       .  A
N77          C78   1.356       .  A
N77         C597   1.439       .  S
C78          C79   1.383       .  A
C78         C789   1.482       .  S
C79          C80   1.381       .  A
C79          H82   1.082       .  S
C80          C81   1.382       .  A
C80          H83   1.082       .  S
C81         C104   1.477       .  S
N84          C88   1.353       .  A
N84          C85   1.355       .  A
N84         C606   1.438       .  S
C85          C86   1.384       .  A
C85         C725   1.477       .  S
C86          C87   1.377       .  A
C86          H89   1.082       .  S
C87          C88   1.380       .  A
C87          H90   1.082       .  S
C88         C142   1.471       .  S
N91          N92   1.321       .  A
N91          C95   1.350       .  A
N91         Cu99   2.083       .  S
N92          C93   1.340       .  A
N92         Cu98   2.072   1_556  S
C93          C94   1.383       .  A
C93          H96   1.082       .  S
C94          C95   1.388       .  A
C94         C119   1.473       .  S
C95          H97   1.082       .  S
Cu98        N101   2.074       .  S
Cu99        N109   2.082       .  S
Cu100       N102   2.078       .  S
Cu100       N108   2.079       .  S
N101        N102   1.321       .  A
N101        C105   1.345       .  A
N102        C103   1.348       .  A
C103        C104   1.386       .  A
C103        H106   1.082       .  S
C104        C105   1.383       .  A
C105        H107   1.081       .  S
N108        N109   1.324   1_554  A
N108        C112   1.344       .  A
N109        C110   1.347       .  A
C110        C111   1.383   1_556  A
C110        H113   1.082       .  S
C111        C112   1.383       .  A
C111        C173   1.472       .  S
C112        H114   1.081       .  S
N115        C119   1.354       .  A
N115        C116   1.357       .  A
N115        C565   1.437       .  S
C116        C117   1.382       .  A
C116        C693   1.481       .  S
C117        C118   1.374       .  A
C117        H120   1.082       .  S
C118        C119   1.383       .  A
C118        H121   1.082       .  S
N122        C126   1.355       .  A
N122        C123   1.359       .  A
N122        C574   1.438       .  S
C123        C124   1.385       .  A
C123        C638   1.490       .  S
C124        C125   1.376       .  A
C124        H127   1.082       .  S
C125        C126   1.381       .  A
C125        H128   1.082       .  S
C126        C132   1.474       .  S
N129        N130   1.323       .  A
N129        C133   1.350       .  A
N129       Cu137   2.095       .  S
N130        C131   1.342       .  A
N130       Cu136   2.073       .  S
C131        C132   1.381       .  A
C131        H134   1.082       .  S
C132        C133   1.388       .  A
C133        H135   1.082       .  S
Cu136       N139   2.073       .  S
Cu137       N147   2.094       .  S
Cu138       N140   2.071       .  S
Cu138       N146   2.072       .  S
N139        N140   1.320       .  A
N139        C143   1.345       .  A
N140        C141   1.346       .  A
C141        C142   1.383       .  A
C141        H144   1.082       .  S
C142        C143   1.383       .  A
C143        H145   1.082       .  S
N146        N147   1.323       .  A
N146        C150   1.343       .  A
N147        C148   1.351       .  A
C148        C149   1.387       .  A
C148        H151   1.082       .  S
C149        C150   1.381       .  A
C149        C225   1.475       .  S
C150        H152   1.081       .  S
N153        N154   1.321       .  A
N153        C157   1.345       .  A
N153       Cu161   2.059       .  S
N154        C155   1.343       .  A
N154       Cu160   2.076       .  S
C155        C156   1.382       .  A
C155        H158   1.082       .  S
C156        C157   1.380       .  A
C156        C188   1.466       .  S
C157        H159   1.082       .  S
Cu160       N163   2.072   1_554  S
Cu161       N171   2.060       .  S
Cu162       N164   2.091       .  S
Cu162       N170   2.090       .  S
N163        N164   1.322       .  A
N163        C167   1.343       .  A
N164        C165   1.348       .  A
C165        C166   1.388       .  A
C165        H168   1.082       .  S
C166        C167   1.381       .  A
C166        C202   1.472       .  S
C167        H169   1.082       .  S
N170        N171   1.322   1_556  A
N170        C174   1.348       .  A
N171        C172   1.343       .  A
C172        C173   1.380       .  A
C172        H175   1.081       .  S
C173        C174   1.387   1_554  A
C174        H176   1.082       .  S
N177        C181   1.353       .  A
N177        C178   1.354       .  A
N177        C501   1.436       .  S
C178        C179   1.383       .  A
C178        C533   1.480       .  S
C179        C180   1.379       .  A
C179        H182   1.082       .  S
C180        C181   1.381       .  A
C180        H183   1.082       .  S
C181        C208   1.472       .  S
N184        C188   1.350       .  A
N184        C185   1.353       .  A
N184        C510   1.436       .  S
C185        C186   1.384       .  A
C185        C478   1.479       .  S
C186        C187   1.378       .  A
C186        H189   1.082       .  S
C187        C188   1.380       .  A
C187        H190   1.082       .  S
N191        C195   1.353       .  A
N191        C192   1.356       .  A
N191        C414   1.435       .  S
C192        C193   1.384       .  A
C192        C437   1.485       .  S
C193        C194   1.378       .  A
C193        H196   1.082       .  S
C194        C195   1.382       .  A
C194        H197   1.082       .  S
C195        C218   1.474       .  S
N198        C202   1.353       .  A
N198        C199   1.357       .  A
N198        C405   1.438       .  S
C199        C200   1.382       .  A
C199        C373   1.482       .  S
C200        C201   1.378       .  A
C200        H203   1.082       .  S
C201        C202   1.381       .  A
C201        H204   1.082       .  S
N205        N206   1.320       .  A
N205        C209   1.346       .  A
N205       Cu213   2.073       .  S
N206        C207   1.345       .  A
N206       Cu212   2.073       .  S
C207        C208   1.383       .  A
C207        H210   1.082       .  S
C208        C209   1.385       .  A
C209        H211   1.082       .  S
Cu212       N215   2.075       .  S
Cu213       N223   2.074       .  S
Cu214       N216   2.091       .  S
Cu214       N222   2.091       .  S
N215        N216   1.323       .  A
N215        C219   1.343       .  A
N216        C217   1.350       .  A
C217        C218   1.387       .  A
C217        H220   1.082       .  S
C218        C219   1.382       .  A
C219        H221   1.082       .  S
N222        N223   1.323       .  A
N222        C226   1.350       .  A
N223        C224   1.343       .  A
C224        C225   1.382       .  A
C224        H227   1.081       .  S
C225        C226   1.387       .  A
C226        H228   1.082       .  S
N229        N230   1.320       .  A
N229        C233   1.348       .  A
N229       Cu237   2.077       .  S
N230        C231   1.343       .  A
N230       Cu236   2.070       .  S
C231        C232   1.382       .  A
C231        H234   1.081       .  S
C232        C233   1.386       .  A
C232        C271   1.474       .  S
C233        H235   1.082       .  S
Cu236       N239   2.072   1_556  S
Cu237       N247   2.079       .  S
Cu238       N240   2.087       .  S
Cu238       N246   2.087       .  S
N239        N240   1.322       .  A
N239        C243   1.341       .  A
N240        C241   1.350       .  A
C241        C242   1.387       .  A
C241        H244   1.082       .  S
C242        C243   1.382       .  A
C242        C257   1.473       .  S
C243        H245   1.083       .  S
N246        N247   1.324   1_554  A
N246        C250   1.350       .  A
N247        C248   1.344       .  A
C248        C249   1.382       .  A
C248        H251   1.081       .  S
C249        C250   1.385   1_556  A
C250        H252   1.082       .  S
N253        C257   1.355       .  A
N253        C254   1.357       .  A
N253        C341   1.438       .  S
C254        C255   1.383       .  A
C254        C542   1.481       .  S
C255        C256   1.374       .  A
C255        H258   1.082       .  S
C256        C257   1.382       .  A
C256        H259   1.082       .  S
N260        C264   1.351       .  A
N260        C261   1.360       .  A
N260        C350   1.440       .  S
C261        C262   1.386       .  A
C261        C469   1.487       .  S
C262        C263   1.375       .  A
C262        H265   1.082       .  S
C263        C264   1.379       .  A
C263        H266   1.082       .  S
C264        C294   1.466       .  S
N267        C271   1.353       .  A
N267        C268   1.356       .  A
N267        C309   1.440       .  S
C268        C269   1.384       .  A
C268        C446   1.481       .  S
C269        C270   1.380       .  A
C269        H272   1.082       .  S
C270        C271   1.382       .  A
C270        H273   1.082       .  S
N274        C278   1.354       .  A
N274        C275   1.356       .  A
N274        C318   1.438       .  S
C275        C276   1.385       .  A
C275        C382   1.484       .  S
C276        C277   1.376       .  A
C276        H279   1.082       .  S
C277        C278   1.380       .  A
C277        H280   1.082       .  S
C278        C284   1.471       .  S
N281        N282   1.320       .  A
N281        C285   1.348       .  A
N281       Cu289   2.079   1_565  S
N282        C283   1.343       .  A
N282       Cu288   2.069   1_565  S
C283        C284   1.383       .  A
C283        H286   1.082       .  S
C284        C285   1.386       .  A
C285        H287   1.082       .  S
Cu288       N291   2.069   1_545  S
Cu289       N299   2.080       .  S
Cu290       N292   2.075   1_545  S
Cu290       N298   2.075       .  S
N291        N292   1.322       .  A
N291        C295   1.342       .  A
N292        C293   1.346       .  A
C293        C294   1.383       .  A
C293        H296   1.082       .  S
C294        C295   1.380       .  A
C295        H297   1.082       .  S
N298        N299   1.323       .  A
N298        C302   1.349       .  A
N299        C300   1.342       .  A
C300        C301   1.383       .  A
C300        H303   1.081       .  S
C301        C302   1.384       .  A
C302        H304   1.082       .  S
C305        C306   1.404       .  A
C305        C310   1.408       .  A
C305        H315   1.084       .  S
C306        C307   1.411       .  A
C306        C311   1.482       .  S
C307        C308   1.399       .  A
C307        C312   1.508       .  S
C308        C309   1.402       .  A
C308        H313   1.084       .  S
C309        C310   1.413       .  A
C310        C314   1.504       .  S
C311        C316   1.412       .  A
C311        C320   1.403       .  A
C312        H328   1.110       .  S
C312        H329   1.110       .  S
C312        H330   1.111       .  S
C314        H325   1.110       .  S
C314        H326   1.110       .  S
C314        H327   1.107       .  S
C316        C317   1.402   1_545  A
C316        C321   1.508       .  S
C317        C318   1.402       .  A
C317        H322   1.083       .  S
C318        C319   1.411   1_565  A
C319        C320   1.406       .  A
C319        C323   1.503   1_545  S
C320        H324   1.084       .  S
C321        H331   1.111   1_545  S
C321        H332   1.110       .  S
C321        H333   1.110       .  S
C323        H334   1.110   1_565  S
C323        H335   1.109       .  S
C323        H336   1.110   1_565  S
C337        C338   1.402       .  A
C337        C342   1.403       .  A
C337        H347   1.084       .  S
C338        C339   1.413       .  A
C338        C343   1.483       .  S
C339        C340   1.406       .  A
C339        C344   1.507       .  S
C340        C341   1.401       .  A
C340        H345   1.083       .  S
C341        C342   1.413       .  A
C342        C346   1.505       .  S
C343        C348   1.412       .  A
C343        C352   1.402   1_545  A
C344        H360   1.110       .  S
C344        H361   1.108       .  S
C344        H362   1.111       .  S
C346        H357   1.111       .  S
C346        H358   1.110       .  S
C346        H359   1.108       .  S
C348        C349   1.406   1_545  A
C348        C353   1.506       .  S
C349        C350   1.404       .  A
C349        H354   1.083       .  S
C350        C351   1.412       .  A
C351        C352   1.403       .  A
C351        C355   1.505       .  S
C352        H356   1.084       .  S
C353        H363   1.111       .  S
C353        H364   1.110       .  S
C353        H365   1.108       .  S
C355        H366   1.110       .  S
C355        H367   1.107       .  S
C355        H368   1.110       .  S
C369        C370   1.402       .  A
C369        C374   1.404       .  A
C369        H379   1.084       .  S
C370        C371   1.413       .  A
C370        C375   1.486       .  S
C371        C372   1.405       .  A
C371        C376   1.507       .  S
C372        C373   1.403       .  A
C372        H377   1.084       .  S
C373        C374   1.413       .  A
C374        C378   1.505       .  S
C375        C380   1.415       .  A
C375        C384   1.400       .  A
C376        H392   1.109       .  S
C376        H393   1.110       .  S
C376        H394   1.111       .  S
C378        H389   1.111       .  S
C378        H390   1.102       .  S
C378        H391   1.110       .  S
C380        C381   1.406       .  A
C380        C385   1.507       .  S
C381        C382   1.403       .  A
C381        H386   1.081       .  S
C382        C383   1.418       .  A
C383        C384   1.400       .  A
C383        C387   1.509       .  S
C384        H388   1.084       .  S
C385        H395   1.111       .  S
C385        H396   1.109       .  S
C385        H397   1.111       .  S
C387        H398   1.110       .  S
C387        H399   1.108       .  S
C387        H400   1.111       .  S
C401        C402   1.399       .  A
C401        C406   1.399       .  A
C401        H411   1.085       .  S
C402        C403   1.411       .  A
C402        C407   1.478       .  S
C403        C404   1.404       .  A
C403        C408   1.507       .  S
C404        C405   1.403       .  A
C404        H409   1.083       .  S
C405        C406   1.414       .  A
C406        C410   1.506       .  S
C407        C412   1.413       .  A
C407        C416   1.402       .  A
C408        H424   1.110       .  S
C408        H425   1.107       .  S
C408        H426   1.111       .  S
C410        H421   1.110       .  S
C410        H422   1.111       .  S
C410        H423   1.106       .  S
C412        C413   1.402       .  A
C412        C417   1.509       .  S
C413        C414   1.400       .  A
C413        H418   1.084       .  S
C414        C415   1.412       .  A
C415        C416   1.402       .  A
C415        C419   1.505       .  S
C416        H420   1.084       .  S
C417        H427   1.111       .  S
C417        H428   1.110       .  S
C417        H429   1.107       .  S
C419        H430   1.110       .  S
C419        H431   1.108       .  S
C419        H432   1.110       .  S
C433        C434   1.401       .  A
C433        C438   1.405       .  A
C433        H443   1.085       .  S
C434        C435   1.410       .  A
C434        C439   1.481       .  S
C435        C436   1.401       .  A
C435        C440   1.507       .  S
C436        C437   1.403       .  A
C436        H441   1.078       .  S
C437        C438   1.417       .  A
C438        C442   1.506       .  S
C439        C444   1.408       .  A
C439        C448   1.403       .  A
C440        H456   1.110       .  S
C440        H457   1.110       .  S
C440        H458   1.111       .  S
C442        H453   1.111       .  S
C442        H454   1.110       .  S
C442        H455   1.108       .  S
C444        C445   1.404       .  A
C444        C449   1.506       .  S
C445        C446   1.407       .  A
C445        H450   1.084       .  S
C446        C447   1.412       .  A
C447        C448   1.402       .  A
C447        C451   1.505       .  S
C448        H452   1.084       .  S
C449        H459   1.111       .  S
C449        H460   1.110       .  S
C449        H461   1.110       .  S
C451        H462   1.110       .  S
C451        H463   1.107       .  S
C451        H464   1.111       .  S
C465        C466   1.400       .  A
C465        C470   1.403       .  A
C465        H475   1.085       .  S
C466        C467   1.412       .  A
C466        C471   1.483       .  S
C467        C468   1.403       .  A
C467        C472   1.507       .  S
C468        C469   1.403       .  A
C468        H473   1.082       .  S
C469        C470   1.420       .  A
C470        C474   1.507       .  S
C471        C476   1.409       .  A
C471        C480   1.404       .  A
C472        H488   1.109       .  S
C472        H489   1.111       .  S
C472        H490   1.111       .  S
C474        H485   1.111       .  S
C474        H486   1.110       .  S
C474        H487   1.108       .  S
C476        C477   1.401       .  A
C476        C481   1.506       .  S
C477        C478   1.404       .  A
C477        H482   1.084       .  S
C478        C479   1.414       .  A
C479        C480   1.404       .  A
C479        C483   1.504       .  S
C480        H484   1.085       .  S
C481        H491   1.111       .  S
C481        H492   1.110       .  S
C481        H493   1.110       .  S
C483        H494   1.110       .  S
C483        H495   1.103       .  S
C483        H496   1.110       .  S
C497        C498   1.400       .  A
C497        C502   1.397       .  A
C497        H507   1.085       .  S
C498        C499   1.413       .  A
C498        C503   1.480       .  S
C499        C500   1.408       .  A
C499        C504   1.506       .  S
C500        C501   1.402       .  A
C500        H505   1.083       .  S
C501        C502   1.413       .  A
C502        C506   1.508       .  S
C503        C508   1.413       .  A
C503        C512   1.400       .  A
C504        H520   1.110       .  S
C504        H521   1.107       .  S
C504        H522   1.111       .  S
C506        H517   1.110       .  S
C506        H518   1.110       .  S
C506        H519   1.108       .  S
C508        C509   1.408       .  A
C508        C513   1.506       .  S
C509        C510   1.402       .  A
C509        H514   1.084       .  S
C510        C511   1.413       .  A
C511        C512   1.397       .  A
C511        C515   1.507       .  S
C512        H516   1.085       .  S
C513        H523   1.111       .  S
C513        H524   1.110       .  S
C513        H525   1.107       .  S
C515        H526   1.111       .  S
C515        H527   1.107       .  S
C515        H528   1.110       .  S
C529        C530   1.402       .  A
C529        C534   1.403       .  A
C529        H539   1.084       .  S
C530        C531   1.411       .  A
C530        C535   1.484       .  S
C531        C532   1.405       .  A
C531        C536   1.506       .  S
C532        C533   1.404       .  A
C532        H537   1.084       .  S
C533        C534   1.411       .  A
C534        C538   1.502       .  S
C535        C540   1.413       .  A
C535        C544   1.401       .  A
C536        H552   1.109       .  S
C536        H553   1.110       .  S
C536        H554   1.111       .  S
C538        H549   1.110       .  S
C538        H550   1.111       .  S
C538        H551   1.105       .  S
C540        C541   1.403       .  A
C540        C545   1.507       .  S
C541        C542   1.402       .  A
C541        H546   1.081       .  S
C542        C543   1.416       .  A
C543        C544   1.402       .  A
C543        C547   1.507       .  S
C544        H548   1.085       .  S
C545        H555   1.111       .  S
C545        H556   1.109       .  S
C545        H557   1.110       .  S
C547        H558   1.110       .  S
C547        H559   1.108       .  S
C547        H560   1.110       .  S
C561        C562   1.401       .  A
C561        C566   1.403       .  A
C561        H571   1.085       .  S
C562        C563   1.412       .  A
C562        C567   1.482       .  S
C563        C564   1.405       .  A
C563        C568   1.506       .  S
C564        C565   1.401       .  A
C564        H569   1.084       .  S
C565        C566   1.412       .  A
C566        C570   1.505       .  S
C567        C572   1.411       .  A
C567        C576   1.403       .  A
C568        H584   1.111       .  S
C568        H585   1.109       .  S
C568        H586   1.111       .  S
C570        H581   1.110       .  S
C570        H582   1.110       .  S
C570        H583   1.108       .  S
C572        C573   1.402       .  A
C572        C577   1.506       .  S
C573        C574   1.400       .  A
C573        H578   1.083       .  S
C574        C575   1.414       .  A
C575        C576   1.405       .  A
C575        C579   1.505       .  S
C576        H580   1.084       .  S
C577        H587   1.111       .  S
C577        H588   1.110       .  S
C577        H589   1.109       .  S
C579        H590   1.110       .  S
C579        H591   1.108       .  S
C579        H592   1.110       .  S
C593        C594   1.400       .  A
C593        C598   1.400       .  A
C593        H603   1.085       .  S
C594        C595   1.411       .  A
C594        C599   1.482       .  S
C595        C596   1.407       .  A
C595        C600   1.505       .  S
C596        C597   1.402       .  A
C596        H601   1.083       .  S
C597        C598   1.414       .  A
C598        C602   1.506       .  S
C599        C604   1.412       .  A
C599        C608   1.399       .  A
C600        H616   1.110       .  S
C600        H617   1.109       .  S
C600        H618   1.111       .  S
C602        H613   1.110       .  S
C602        H614   1.111       .  S
C602        H615   1.105       .  S
C604        C605   1.410       .  A
C604        C609   1.504       .  S
C605        C606   1.403       .  A
C605        H610   1.083       .  S
C606        C607   1.415       .  A
C607        C608   1.397       .  A
C607        C611   1.507       .  S
C608        H612   1.085       .  S
C609        H619   1.111       .  S
C609        H620   1.110       .  S
C609        H621   1.110       .  S
C611        H622   1.110       .  S
C611        H623   1.107       .  S
C611        H624   1.110       .  S
C625        C626   1.405       .  A
C625        C630   1.405       .  A
C625        H635   1.084       .  S
C626        C627   1.414       .  A
C626        C631   1.491       .  S
C627        C628   1.406       .  A
C627        C632   1.507       .  S
C628        C629   1.404       .  A
C628        H633   1.084       .  S
C629        C630   1.413       .  A
C630        C634   1.506       .  S
C631        C636   1.416       .  A
C631        C640   1.401       .  A
C632        H648   1.109       .  S
C632        H649   1.110       .  S
C632        H650   1.111       .  S
C634        H645   1.110       .  S
C634        H646   1.110       .  S
C634        H647   1.106       .  S
C636        C637   1.407       .  A
C636        C641   1.507       .  S
C637        C638   1.404       .  A
C637        H642   1.084       .  S
C638        C639   1.418       .  A
C639        C640   1.403       .  A
C639        C643   1.507       .  S
C640        H644   1.085       .  S
C641        H651   1.111       .  S
C641        H652   1.109       .  S
C641        H653   1.110       .  S
C643        H654   1.110       .  S
C643        H655   1.108       .  S
C643        H656   1.111       .  S
C657        C658   1.404       .  A
C657        C662   1.408   1_545  A
C657        H667   1.084       .  S
C658        C659   1.412   1_545  A
C658        C663   1.485       .  S
C659        C660   1.403       .  A
C659        C664   1.508   1_565  S
C660        C661   1.402       .  A
C660        H665   1.083       .  S
C661        C662   1.412       .  A
C662        C666   1.503       .  S
C663        C668   1.412       .  A
C663        C672   1.404       .  A
C664        H680   1.110       .  S
C664        H681   1.109       .  S
C664        H682   1.111   1_545  S
C666        H677   1.110       .  S
C666        H678   1.110       .  S
C666        H679   1.109       .  S
C668        C669   1.401       .  A
C668        C673   1.508       .  S
C669        C670   1.402       .  A
C669        H674   1.084       .  S
C670        C671   1.412       .  A
C671        C672   1.409       .  A
C671        C675   1.503       .  S
C672        H676   1.084       .  S
C673        H683   1.111       .  S
C673        H684   1.110       .  S
C673        H685   1.109       .  S
C675        H686   1.106       .  S
C675        H687   1.109       .  S
C675        H688   1.110       .  S
C689        C690   1.400       .  A
C689        C694   1.403       .  A
C689        H699   1.085       .  S
C690        C691   1.411       .  A
C690        C695   1.482       .  S
C691        C692   1.403       .  A
C691        C696   1.506       .  S
C692        C693   1.403       .  A
C692        H697   1.082       .  S
C693        C694   1.416       .  A
C694        C698   1.507       .  S
C695        C700   1.409       .  A
C695        C704   1.403       .  A
C696        H712   1.110       .  S
C696        H713   1.110       .  S
C696        H714   1.111       .  S
C698        H709   1.110       .  S
C698        H710   1.110       .  S
C698        H711   1.108       .  S
C700        C701   1.403       .  A
C700        C705   1.506       .  S
C701        C702   1.406       .  A
C701        H706   1.084       .  S
C702        C703   1.412       .  A
C703        C704   1.404       .  A
C703        C707   1.506       .  S
C704        H708   1.084       .  S
C705        H715   1.111       .  S
C705        H716   1.110       .  S
C705        H717   1.110       .  S
C707        H718   1.110       .  S
C707        H719   1.106       .  S
C707        H720   1.110       .  S
C721        C722   1.403       .  A
C721        C726   1.405       .  A
C721        H731   1.084       .  S
C722        C723   1.412       .  A
C722        C727   1.482       .  S
C723        C724   1.403       .  A
C723        C728   1.507       .  S
C724        C725   1.403       .  A
C724        H729   1.084       .  S
C725        C726   1.411       .  A
C726        C730   1.503       .  S
C727        C732   1.414       .  A
C727        C736   1.397       .  A
C728        H744   1.109       .  S
C728        H745   1.110       .  S
C728        H746   1.111       .  S
C730        H741   1.110       .  S
C730        H742   1.111       .  S
C730        H743   1.108       .  S
C732        C733   1.407       .  A
C732        C737   1.505       .  S
C733        C734   1.403       .  A
C733        H738   1.084       .  S
C734        C735   1.420       .  A
C735        C736   1.398       .  A
C735        C739   1.509       .  S
C736        H740   1.085       .  S
C737        H747   1.111       .  S
C737        H748   1.109       .  S
C737        H749   1.111       .  S
C739        H750   1.110       .  S
C739        H751   1.107       .  S
C739        H752   1.111       .  S
C753        C754   1.410       .  A
C753        C758   1.406       .  A
C753        H763   1.082       .  S
C754        C755   1.423       .  A
C754        C759   1.513       .  S
C755        C756   1.403       .  A
C755        C760   1.510       .  S
C756        C757   1.407       .  A
C756        H761   1.079       .  S
C757        C758   1.418       .  A
C758        C762   1.504       .  S
C759        C764   1.422       .  A
C759        C768   1.408   1_545  A
C760        H776   1.110   1_545  S
C760        H777   1.107   1_545  S
C760        H778   1.111       .  S
C762        H773   1.111       .  S
C762        H774   1.110       .  S
C762        H775   1.107       .  S
C764        C765   1.406   1_545  A
C764        C769   1.509       .  S
C765        C766   1.409       .  A
C765        H770   1.077   1_565  S
C766        C767   1.422       .  A
C767        C768   1.404       .  A
C767        C771   1.505       .  S
C768        H772   1.083       .  S
C769        H779   1.111       .  S
C769        H780   1.110       .  S
C769        H781   1.107       .  S
C771        H782   1.110       .  S
C771        H783   1.105       .  S
C771        H784   1.111       .  S
C785        C786   1.402       .  A
C785        C790   1.404       .  A
C785        H795   1.084       .  S
C786        C787   1.414       .  A
C786        C791   1.489       .  S
C787        C788   1.406       .  A
C787        C792   1.507       .  S
C788        C789   1.403       .  A
C788        H793   1.084       .  S
C789        C790   1.416       .  A
C790        C794   1.507       .  S
C791        C796   1.416       .  A
C791        C800   1.398       .  A
C792        H808   1.109       .  S
C792        H809   1.111       .  S
C792        H810   1.111       .  S
C794        H805   1.110       .  S
C794        H806   1.110       .  S
C794        H807   1.105       .  S
C796        C797   1.411       .  A
C796        C801   1.505       .  S
C797        C798   1.404       .  A
C797        H802   1.084       .  S
C798        C799   1.420       .  A
C799        C800   1.398       .  A
C799        C803   1.510       .  S
C800        H804   1.085       .  S
C801        H811   1.111       .  S
C801        H812   1.109       .  S
C801        H813   1.110       .  S
C803        H814   1.110       .  S
C803        H815   1.107       .  S
C803        H816   1.111       .  S
