geometry optimzed in LAMMPS
_audit_creation_date              2020-11-30 
_audit_creation_method            'lammps2cif' 
_symmetry_space_group_name_H-M    'P1' 
_symmetry_Int_Tables_number       1 
_symmetry_cell_setting            triclinic 
loop_ 
_symmetry_equiv_pos_as_xyz 
  x,y,z 
_cell_length_a                    80.2508741 
_cell_length_b                    79.94616436704767 
_cell_length_c                    37.067998238954225 
_cell_angle_alpha                 88.81440223678017 
_cell_angle_beta                  91.15390654865537 
_cell_angle_gamma                 123.19405712928973 
loop_ 
_atom_site_label 
_atom_site_type_symbol 
_atom_site_fract_x 
_atom_site_fract_y 
_atom_site_fract_z 
_atom_site_charge 
N1          N  0.39751346  0.38987840  0.93375837    -0.26100
N2          N  0.37985340  0.38010447  0.94912658    -0.34000
C3          C  0.36667568  0.36515358  0.92766415     0.02200
C4          C  0.37658012  0.36539893  0.89748744     0.08300
C5          C  0.39612635  0.38119735  0.90216475    -0.04800
H6          H  0.35118287  0.35454738  0.93407725     0.08900
H7          H  0.40836098  0.38608906  0.88390746     0.10100
Cu8        Cu  0.37471307  0.38663736  0.99945089     0.44200
Cu9        Cu  0.42214485  0.41495875  0.95640262     0.42000
Cu10       Cu  0.41498105  0.42955103  0.04512872     0.43900
N11         N  0.37282681  0.39414586  0.05129110    -0.33500
N12         N  0.38749836  0.40972302  0.06855791    -0.27700
C13         C  0.38136077  0.40999823  0.10195563    -0.03800
C14         C  0.36185591  0.39378421  0.10573733     0.08400
C15         C  0.35703678  0.38410181  0.07300908     0.02200
H16         H  0.39037697  0.42129024  0.12178612     0.09800
H17         H  0.34321542  0.37047156  0.06560753     0.08900
N18         N  0.44015727  0.44682146  0.01364441    -0.34900
N19         N  0.44286466  0.44138632  0.98195726    -0.27100
C20         C  0.46022073  0.45634059  0.96821421    -0.02300
C21         C  0.46880968  0.47202257  0.99222633     0.06300
C22         C  0.45569068  0.46542129  0.02075510     0.04400
H23         H  0.46570703  0.45611930  0.94193341     0.09500
H24         H  0.45716377  0.47361492  0.04476213     0.08300
N25         N  0.62502039  0.61408497  0.90937821    -0.26100
N26         N  0.63776761  0.63196076  0.92286658    -0.34000
C27         C  0.65311361  0.64228623  0.90010649     0.02200
C28         C  0.64993143  0.63016050  0.87122488     0.08300
C29         C  0.63204349  0.61239799  0.87799835    -0.04800
H30         H  0.66567414  0.65741868  0.90436637     0.08900
H31         H  0.62440859  0.59941670  0.86087776     0.10100
Cu32       Cu  0.63364689  0.64107786  0.97183528     0.44200
Cu33       Cu  0.59804106  0.59332989  0.93287379     0.42000
Cu34       Cu  0.58579857  0.60792346  0.01474807     0.43900
N35         N  0.62631670  0.64597109  0.02196778    -0.33500
N36         N  0.60876026  0.63428442  0.03726782    -0.27700
C37         C  0.60916318  0.64159215  0.06988175    -0.03800
C38         C  0.62795857  0.65853477  0.07542972     0.08400
C39         C  0.63841602  0.66085720  0.04453795     0.02200
H40         H  0.59694202  0.63465379  0.08866957     0.09800
H41         H  0.65374955  0.67245502  0.03891299     0.08900
N42         N  0.56681858  0.58090234  0.98940309    -0.34900
N43         N  0.57138987  0.57548817  0.95968993    -0.27100
C44         C  0.55643232  0.55685048  0.95115125    -0.02300
C45         C  0.54169829  0.55011829  0.97682890     0.06300
C46         C  0.54884274  0.56583578  0.00062691     0.04400
H47         H  0.55639102  0.54884663  0.92795357     0.09500
H48         H  0.54186332  0.56609704  0.02507922     0.08300
N49         N  0.26544635  0.32391420  0.39911526    -0.26100
N50         N  0.28360622  0.33149047  0.38681175    -0.34000
C51         C  0.29364218  0.32691468  0.41015153     0.02200
C52         C  0.28106909  0.31566992  0.43820910     0.08300
C53         C  0.26331823  0.31403316  0.43027437    -0.04800
H54         H  0.30889322  0.33130827  0.40679478     0.08900
H55         H  0.25004388  0.30675764  0.44655532     0.10100
Cu56       Cu  0.29334095  0.34676471  0.33786915     0.44200
Cu57       Cu  0.24494759  0.32866638  0.37428442     0.42000
Cu58       Cu  0.25884919  0.35470499  0.28773960     0.43900
N59         N  0.29811367  0.35798876  0.28542525    -0.33500
N60         N  0.28556434  0.36081267  0.26700681    -0.27700
C61         C  0.29277082  0.36750781  0.23365982    -0.03800
C62         C  0.31071956  0.36888526  0.23076257     0.08400
C63         C  0.31354685  0.36269427  0.26425967     0.02200
H64         H  0.28545592  0.37118898  0.21319220     0.09800
H65         H  0.32561688  0.36110951  0.27251402     0.08900
N66         N  0.23331358  0.34720342  0.31547000    -0.34900
N67         N  0.22826274  0.33766116  0.34689816    -0.27100
C68         C  0.21125259  0.33537971  0.35786064    -0.02300
C69         C  0.20518050  0.34384766  0.33208891     0.06300
C70         C  0.21960048  0.35120111  0.30559760     0.04400
H71         H  0.20408293  0.32837731  0.38313110     0.09500
H72         H  0.22001587  0.35868439  0.28066517     0.08300
N73         N  0.07195635  0.36202869  0.26126041    -0.26100
N74         N  0.05455510  0.35619551  0.27524097    -0.34000
C75         C  0.04400861  0.35968988  0.25115930     0.02200
C76         C  0.05534585  0.36820238  0.22039146     0.08300
C77         C  0.07299634  0.36943726  0.22787391    -0.04800
H78         H  0.02928029  0.35647949  0.25598458     0.08900
H79         H  0.08553343  0.37490329  0.21013400     0.10100
Cu80       Cu  0.04618692  0.34355008  0.32629387     0.44200
Cu81       Cu  0.09292448  0.35867644  0.28810832     0.42000
Cu82       Cu  0.08002359  0.33431202  0.37665154     0.43900
N83         N  0.04068363  0.33090787  0.37748974    -0.33500
N84         N  0.05295105  0.32770457  0.39603153    -0.27700
C85         C  0.04487608  0.31964391  0.42831215    -0.03800
C86         C  0.02660953  0.31759724  0.43007702     0.08400
C87         C  0.02448060  0.32489767  0.39735247     0.02200
H88         H  0.05174865  0.31543016  0.44879815     0.09800
H89         H  0.01225456  0.32618413  0.38879810     0.08900
N90         N  0.10568048  0.34224279  0.34917110    -0.34900
N91         N  0.11042989  0.35128427  0.31726337    -0.27100
C92         C  0.12770959  0.35403145  0.30674100    -0.02300
C93         C  0.13420631  0.34632812  0.33322979     0.06300
C94         C  0.11981184  0.33898062  0.35973524     0.04400
H95         H  0.13471089  0.36068730  0.28118957     0.09500
H96         H  0.11963666  0.33190198  0.38503685     0.08300
N97         N  0.30553845  0.26961367  0.60642831    -0.26100
N98         N  0.31004143  0.28610939  0.62286459    -0.34000
C99         C  0.30625958  0.29710578  0.60047581     0.02200
C100        C  0.29886577  0.28698875  0.56831931     0.08300
C101        C  0.29851054  0.26954819  0.57308730    -0.04800
H102        H  0.30894690  0.31151906  0.60699995     0.08900
H103        H  0.29432491  0.25812378  0.55324491     0.10100
Cu104      Cu  0.32161482  0.29298934  0.67456116     0.44200
Cu105      Cu  0.31117137  0.24927026  0.62986687     0.42000
Cu106      Cu  0.33092775  0.25860055  0.72219400     0.43900
N107        N  0.33193289  0.29668694  0.72704578    -0.33500
N108        N  0.33536738  0.28427588  0.74457264    -0.27700
C109        C  0.34256547  0.29152483  0.77764013    -0.03800
C110        C  0.34359624  0.30928313  0.78103342     0.08400
C111        C  0.33670784  0.31205224  0.74847534     0.02200
H112        H  0.34684825  0.28443743  0.79758768     0.09800
H113        H  0.33582792  0.32464201  0.74043072     0.08900
N114        N  0.32685548  0.23547138  0.69081717    -0.34900
N115        N  0.31984518  0.23220070  0.65734875    -0.27100
C116        C  0.32025186  0.21692707  0.64396014    -0.02300
C117        C  0.32789982  0.21020766  0.67016297     0.06300
C118        C  0.33184443  0.22233622  0.69958504     0.04400
H119        H  0.31599033  0.21165257  0.61660246     0.09500
H120        H  0.33807125  0.22185237  0.72543512     0.08300
N121        N  0.36450716  0.08796888  0.72321372    -0.26100
N122        N  0.36169097  0.07226146  0.70616097    -0.34000
C123        C  0.36721372  0.06245874  0.72791015     0.02200
C124        C  0.37405452  0.07253833  0.76028296     0.08300
C125        C  0.37203559  0.08864598  0.75629360    -0.04800
H126        H  0.36599438  0.04879442  0.72067434     0.08900
H127        H  0.37600785  0.10023514  0.77563560     0.10100
Cu128      Cu  0.35073404  0.06476430  0.65403032     0.44200
Cu129      Cu  0.35791995  0.10762907  0.70055042     0.42000
Cu130      Cu  0.33764541  0.09649286  0.60894734     0.43900
N131        N  0.33872263  0.05950563  0.60249089    -0.33500
N132        N  0.33328379  0.07067212  0.58613364    -0.27700
C133        C  0.32511081  0.06260873  0.55383543    -0.03800
C134        C  0.32571388  0.04574495  0.54957726     0.08400
C135        C  0.33447923  0.04430055  0.58096004     0.02200
H136        H  0.31937006  0.06870038  0.53468784     0.09800
H137        H  0.33717705  0.03276819  0.58801807     0.08900
N138        N  0.34286107  0.12098029  0.63834199    -0.34900
N139        N  0.34999532  0.12479042  0.67172645    -0.27100
C140        C  0.35049130  0.14082145  0.68370092    -0.02300
C141        C  0.34334274  0.14757701  0.65662537     0.06300
C142        C  0.33872735  0.13461288  0.62819438     0.04400
H143        H  0.35499066  0.14659308  0.71073287     0.09500
H144        H  0.33256448  0.13484506  0.60211758     0.08300
N145        N  0.74321282  0.69263947  0.57557238    -0.26100
N146        N  0.72526343  0.68574346  0.58830405    -0.34000
C147        C  0.71543108  0.69065178  0.56527827     0.02200
C148        C  0.72781447  0.70133798  0.53678339     0.08300
C149        C  0.74536047  0.70241180  0.54421862    -0.04800
H150        H  0.70041156  0.68684820  0.56919090     0.08900
H151        H  0.75847293  0.70923908  0.52755331     0.10100
Cu152      Cu  0.71489161  0.67069054  0.63693402     0.44200
Cu153      Cu  0.76331053  0.68715059  0.60028148     0.42000
Cu154      Cu  0.74695459  0.65924595  0.68475690     0.43900
N155        N  0.70937827  0.65900726  0.68873673    -0.33500
N156        N  0.72097739  0.65451540  0.70620900    -0.27700
C157        C  0.71386792  0.64806710  0.73965399    -0.03800
C158        C  0.69712596  0.64875458  0.74349094     0.08400
C159        C  0.69472816  0.65576970  0.71066220     0.02200
H160        H  0.72083946  0.64395417  0.76013134     0.09800
H161        H  0.68331647  0.65854708  0.70333135     0.08900
N162        N  0.77324325  0.66730766  0.65941540    -0.34900
N163        N  0.77931251  0.67761966  0.62881682    -0.27100
C164        C  0.79696025  0.68062719  0.62008658    -0.02300
C165        C  0.80235922  0.67185228  0.64651678     0.06300
C166        C  0.78687902  0.66352987  0.67097615     0.04400
H167        H  0.80511825  0.68845918  0.59600160     0.09500
H168        H  0.78574795  0.65567267  0.69584727     0.08300
N169        N  0.93362384  0.65147878  0.72500968    -0.26100
N170        N  0.94963744  0.65444834  0.70914386    -0.34000
C171        C  0.95879237  0.64846654  0.73167529     0.02200
C172        C  0.94802246  0.64135252  0.76336757     0.08300
C173        C  0.93214403  0.64352935  0.75804492    -0.04800
H174        H  0.97250692  0.64960789  0.72558679     0.08900
H175        H  0.92019937  0.63940889  0.77655826     0.10100
Cu176      Cu  0.95835652  0.66683273  0.65775365     0.44200
Cu177      Cu  0.91464174  0.65843346  0.70070085     0.42000
Cu178      Cu  0.92949418  0.68367003  0.61285498     0.43900
N179        N  0.96529072  0.68077906  0.60737155    -0.33500
N180        N  0.95526996  0.68770152  0.59158500    -0.27700
C181        C  0.96390129  0.69638284  0.55991530    -0.03800
C182        C  0.97995670  0.69461088  0.55533400     0.08400
C183        C  0.98033788  0.68458284  0.58590729     0.02200
H184        H  0.95852518  0.70297064  0.54108692     0.09800
H185        H  0.99087641  0.68046868  0.59223889     0.08900
N186        N  0.90335737  0.67571946  0.63890180    -0.34900
N187        N  0.89796016  0.66642429  0.67055730    -0.27100
C188        C  0.88028991  0.66324830  0.67955171    -0.02300
C189        C  0.87421133  0.67094922  0.65233857     0.06300
C190        C  0.88924034  0.67873170  0.62699567     0.04400
H191        H  0.87265264  0.65617819  0.70445893     0.09500
H192        H  0.88980216  0.68585438  0.60151085     0.08300
N193        N  0.63689040  0.92744514  0.27615559    -0.26100
N194        N  0.63581311  0.94001217  0.29693844    -0.34000
C195        C  0.62979696  0.94999073  0.27689425     0.02200
C196        C  0.62716673  0.94367298  0.24136071     0.08300
C197        C  0.63184043  0.92927901  0.24216820    -0.04800
H198        H  0.62763758  0.96108513  0.28778656     0.08900
H199        H  0.63225925  0.92113447  0.21970526     0.10100
Cu200      Cu  0.64455825  0.94458532  0.35080065     0.44200
Cu201      Cu  0.64594150  0.90902579  0.29510456     0.42000
Cu202      Cu  0.66522190  0.91722783  0.38727329     0.43900
N203        N  0.65768197  0.94951345  0.40160049    -0.33500
N204        N  0.66539885  0.93965562  0.41472601    -0.27700
C205        C  0.67404646  0.94735997  0.44683213    -0.03800
C206        C  0.67172240  0.96287001  0.45436137     0.08400
C207        C  0.66119528  0.96373173  0.42507564     0.02200
H208        H  0.68170920  0.94218087  0.46320067     0.09800
H209        H  0.65716915  0.97449169  0.42033148     0.08900
N210        N  0.66432215  0.89659663  0.35292230    -0.34900
N211        N  0.65698629  0.89344654  0.31969230    -0.27100
C212        C  0.65844364  0.87914976  0.30471381    -0.02300
C213        C  0.66722956  0.87304872  0.32956100     0.06300
C214        C  0.67079804  0.88447157  0.35983202     0.04400
H215        H  0.65372479  0.87383307  0.27747062     0.09500
H216        H  0.67732164  0.88381931  0.38522560     0.08300
N217        N  0.70165748  0.74884247  0.37362014    -0.26100
N218        N  0.69833823  0.73314015  0.35569669    -0.34000
C219        C  0.70191724  0.72184731  0.37772973     0.02200
C220        C  0.70802302  0.73101653  0.41092188     0.08300
C221        C  0.70775545  0.74812227  0.40738448    -0.04800
H222        H  0.70015309  0.70796001  0.37017176     0.08900
H223        H  0.71116279  0.75892149  0.42810250     0.10100
Cu224      Cu  0.68832175  0.72723655  0.30255728     0.44200
Cu225      Cu  0.69639082  0.76973266  0.35208892     0.42000
Cu226      Cu  0.67309989  0.75870265  0.26346747     0.43900
N227        N  0.67464269  0.72241301  0.25231606    -0.33500
N228        N  0.66833599  0.73345409  0.23877813    -0.27700
C229        C  0.65897895  0.72575293  0.20713601    -0.03800
C230        C  0.65959124  0.70916735  0.20022513     0.08400
C231        C  0.66968913  0.70752593  0.22938025     0.02200
H232        H  0.65248015  0.73196794  0.19018914     0.09800
H233        H  0.67279470  0.69607614  0.23402344     0.08900
N234        N  0.68021171  0.78354878  0.29282846    -0.34900
N235        N  0.68872535  0.78764369  0.32513088    -0.27100
C236        C  0.69033333  0.80418202  0.33745620    -0.02300
C237        C  0.68236783  0.81078238  0.31172643     0.06300
C238        C  0.67620438  0.79735328  0.28371198     0.04400
H239        H  0.69597769  0.81033126  0.36395140     0.09500
H240        H  0.66894553  0.79730738  0.25877589     0.08300
N241        N  0.72510799  0.04230199  0.60997740    -0.26100
N242        N  0.70849780  0.03041324  0.62793795    -0.34000
C243        C  0.69561327  0.01497171  0.60701690     0.02200
C244        C  0.70465145  0.01709005  0.57444769     0.08300
C245        C  0.72337388  0.03452384  0.57720755    -0.04800
H246        H  0.68093002  0.00288243  0.61522550     0.08900
H247        H  0.73475375  0.04119006  0.55676800     0.10100
Cu248      Cu  0.70437571  0.03523746  0.68045205     0.44200
Cu249      Cu  0.74864696  0.06897875  0.63082200     0.42000
Cu250      Cu  0.74100794  0.08225048  0.72028805     0.43900
N251        N  0.70278262  0.04266839  0.73257943    -0.33500
N252        N  0.71592459  0.06010529  0.74711408    -0.27700
C253        C  0.70989318  0.06068167  0.78037218    -0.03800
C254        C  0.69212760  0.04266459  0.78704119     0.08400
C255        C  0.68813253  0.03160072  0.75618429     0.02200
H256        H  0.71776201  0.07335858  0.79815088     0.09800
H257        H  0.67509078  0.01693720  0.75058772     0.08900
N258        N  0.76538073  0.10077180  0.68817944    -0.34900
N259        N  0.76832593  0.09592908  0.65611325    -0.27100
C260        C  0.78551781  0.11137357  0.64279035    -0.02300
C261        C  0.79381519  0.12665834  0.66768097     0.06300
C262        C  0.78060606  0.11937148  0.69609696     0.04400
H263        H  0.79152077  0.11138617  0.61692191     0.09500
H264        H  0.78172950  0.12712940  0.72050444     0.08300
N265        N  0.93388014  0.28776222  0.72366007    -0.26100
N266        N  0.95043091  0.30070609  0.70642682    -0.34000
C267        C  0.96240223  0.31600927  0.72826441     0.02200
C268        C  0.95299683  0.31257908  0.76096204     0.08300
C269        C  0.93493512  0.29446631  0.75718451    -0.04800
H270        H  0.97696944  0.32863917  0.72086548     0.08900
H271        H  0.92325811  0.28693035  0.77697050     0.10100
Cu272      Cu  0.95634756  0.29717182  0.65426512     0.44200
Cu273      Cu  0.91082918  0.26185815  0.70007277     0.42000
Cu274      Cu  0.91840808  0.25300657  0.60742349     0.43900
N275        N  0.95961924  0.29023261  0.60271128    -0.33500
N276        N  0.94582950  0.27412982  0.58530367    -0.27700
C277        C  0.95292093  0.27387313  0.55287196    -0.03800
C278        C  0.97215005  0.29064258  0.54978245     0.08400
C279        C  0.97578797  0.30066197  0.58194841     0.02200
H280        H  0.94480239  0.26206986  0.53345037     0.09800
H281        H  0.98912825  0.31463378  0.58977036     0.08900
N282        N  0.89340396  0.23327936  0.63756274    -0.34900
N283        N  0.89073983  0.23655377  0.67112081    -0.27100
C284        C  0.87377659  0.22047455  0.68359423    -0.02300
C285        C  0.86531929  0.20622510  0.65674913     0.06300
C286        C  0.87818516  0.21497355  0.62786071     0.04400
H287        H  0.86820624  0.21926727  0.71047861     0.09500
H288        H  0.87710618  0.20824997  0.60218262     0.08300
N289        N  0.97930615  0.59865713  0.92857747    -0.26100
N290        N  0.98106235  0.61383005  0.94586559    -0.34000
C291        C  0.97469889  0.62294201  0.92413813     0.02200
C292        C  0.96859481  0.61304475  0.89143269     0.08300
C293        C  0.97170087  0.59764718  0.89543293    -0.04800
H294        H  0.97544914  0.63640702  0.93111910     0.08900
H295        H  0.96898386  0.58665770  0.87562904     0.10100
Cu296      Cu  0.99370596  0.62242665  0.99694104     0.44200
Cu297      Cu  0.98885887  0.58107877  0.94984774     0.42000
Cu298      Cu  0.01352333  0.59427429  0.03669300     0.43900
N299        N  0.00915998  0.62931052  0.04563227    -0.33500
N300        N  0.01691841  0.61961273  0.05952527    -0.27700
C301        C  0.02650754  0.62845754  0.09051468    -0.03800
C302        C  0.02445680  0.64427147  0.09658913     0.08400
C303        C  0.01335359  0.64433048  0.06763636     0.02200
H304        H  0.03395585  0.62340632  0.10785332     0.09800
H305        H  0.00874317  0.65462801  0.06278328     0.08900
N306        N  0.00832894  0.56986664  0.00727564    -0.34900
N307        N  0.99948680  0.56533719  0.97526531    -0.27100
C308        C  0.99861839  0.54924349  0.96263415    -0.02300
C309        C  0.00724096  0.54312049  0.98790647     0.06300
C310        C  0.01323976  0.55662648  0.01593176     0.04400
H311        H  0.99244423  0.54275142  0.93656213     0.09500
H312        H  0.02046668  0.55675815  0.04096800     0.08300
N313        N  0.02861807  0.41133061  0.05061285    -0.26100
N314        N  0.02043027  0.39317902  0.03752152    -0.34000
C315        C  0.02324009  0.38190278  0.06099958     0.02200
C316        C  0.03391349  0.39357351  0.09019447     0.08300
C317        C  0.03716676  0.41218448  0.08275180    -0.04800
H318        H  0.01790426  0.36636449  0.05707203     0.08900
H319        H  0.04458630  0.42514102  0.09993763     0.10100
Cu320      Cu  0.00622563  0.38463906  0.98811860     0.44200
Cu321      Cu  0.02624097  0.43325201  0.02459235     0.42000
Cu322      Cu  0.00372084  0.42134012  0.93421808     0.43900
N323        N  0.99533132  0.37970078  0.93603389    -0.33500
N324        N  0.99434017  0.39302661  0.91615674    -0.27700
C325        C  0.98689736  0.38524125  0.88350283    -0.03800
C326        C  0.98324998  0.36613102  0.88257095     0.08400
C327        C  0.98879517  0.36320247  0.91655419     0.02200
H328        H  0.98425984  0.39299821  0.86222638     0.09800
H329        H  0.98872126  0.35033255  0.92633586     0.08900
N330        N  0.01233704  0.44741997  0.96135310    -0.34900
N331        N  0.02024988  0.45157728  0.99418353    -0.27100
C332        C  0.02256235  0.46869410  0.00496371    -0.02300
C333        C  0.01579620  0.47573211  0.97770043     0.06300
C334        C  0.00948886  0.46183708  0.95039786     0.04400
H335        H  0.02793277  0.47502699  0.03143521     0.09500
H336        H  0.00291213  0.46190876  0.92468740     0.08300
N337        N  0.06982207  0.72206029  0.25656633    -0.26100
N338        N  0.05347980  0.70862345  0.27393484    -0.34000
C339        C  0.04220887  0.69284243  0.25238606     0.02200
C340        C  0.05197789  0.69636538  0.22001886     0.08300
C341        C  0.06946696  0.71500985  0.22366605    -0.04800
H342        H  0.02800791  0.67968529  0.25988013     0.08900
H343        H  0.08088868  0.72305813  0.20358337     0.10100
Cu344      Cu  0.04690724  0.71213384  0.32612426     0.44200
Cu345      Cu  0.09147110  0.74982299  0.27771482     0.42000
Cu346      Cu  0.08091160  0.76005792  0.36632850     0.43900
N347        N  0.04272631  0.71986602  0.37680333    -0.33500
N348        N  0.05490376  0.73767291  0.39104037    -0.27700
C349        C  0.04783543  0.73829221  0.42326864    -0.03800
C350        C  0.03046120  0.71990773  0.42987851     0.08400
C351        C  0.02770933  0.70859516  0.39980938     0.02200
H352        H  0.05506044  0.75105885  0.44091774     0.09800
H353        H  0.01553590  0.69337337  0.39476797     0.08900
N354        N  0.10617279  0.78026264  0.33714835    -0.34900
N355        N  0.11006061  0.77663788  0.30480595    -0.27100
C356        C  0.12738032  0.79278758  0.29338946    -0.02300
C357        C  0.13484691  0.80733795  0.31982694     0.06300
C358        C  0.12091040  0.79874245  0.34716923     0.04400
H359        H  0.13386263  0.79390468  0.26744425     0.09500
H360        H  0.12151266  0.80526934  0.37281217     0.08300
N361        N  0.29223391  0.95378253  0.25360060    -0.26100
N362        N  0.30531850  0.96964909  0.27237820    -0.34000
C363        C  0.32159026  0.98135229  0.25249311     0.02200
C364        C  0.31882347  0.97249067  0.21942364     0.08300
C365        C  0.29996928  0.95499954  0.22097938    -0.04800
H366        H  0.33436926  0.99547466  0.26142468     0.08900
H367        H  0.29249350  0.94389964  0.20015568     0.10100
Cu368      Cu  0.30114158  0.97507900  0.32427530     0.44200
Cu369      Cu  0.26459305  0.93166987  0.27419197     0.42000
Cu370      Cu  0.25422958  0.94136879  0.36540032     0.43900
N371        N  0.29497584  0.97873085  0.37599564    -0.33500
N372        N  0.27739848  0.96692388  0.39106362    -0.27700
C373        C  0.27783821  0.97415608  0.42385732    -0.03800
C374        C  0.29671121  0.99112246  0.42966996     0.08400
C375        C  0.30715621  0.99349043  0.39876335     0.02200
H376        H  0.26539592  0.96755839  0.44213126     0.09800
H377        H  0.32228126  0.00547441  0.39268670     0.08900
N378        N  0.23468752  0.91587679  0.33519198    -0.34900
N379        N  0.23849293  0.91244397  0.30255881    -0.27100
C380        C  0.22313551  0.89451480  0.29146691    -0.02300
C381        C  0.20889078  0.88607084  0.31831692     0.06300
C382        C  0.21679057  0.90014435  0.34559677     0.04400
H383        H  0.22245153  0.88815789  0.26559115     0.09500
H384        H  0.21030836  0.89883193  0.37162594     0.08300
N385        N  0.41334776  0.03661299  0.92317013    -0.26100
N386        N  0.39797455  0.03460169  0.93997784    -0.34000
C387        C  0.38825620  0.03979648  0.91737585     0.02200
C388        C  0.39803859  0.04555513  0.88473779     0.08300
C389        C  0.41381597  0.04318464  0.88927858    -0.04800
H390        H  0.37518317  0.03966219  0.92453481     0.08900
H391        H  0.42534113  0.04685767  0.87005437     0.10100
Cu392      Cu  0.39145002  0.02662939  0.99353656     0.44200
Cu393      Cu  0.43410156  0.03248595  0.94834208     0.42000
Cu394      Cu  0.42692862  0.02205324  0.04489074     0.43900
N395        N  0.38757381  0.01819917  0.04717955    -0.33500
N396        N  0.40053413  0.01629897  0.06621052    -0.27700
C397        C  0.39309306  0.00918772  0.09924050    -0.03800
C398        C  0.37448704  0.00645386  0.10109837     0.08400
C399        C  0.37160893  0.01249491  0.06752083     0.02200
H400        H  0.40035989  0.00545132  0.11972602     0.09800
H401        H  0.35877113  0.01251265  0.05815749     0.08900
N402        N  0.45129809  0.02668839  0.01689644    -0.34900
N403        N  0.45376768  0.03024282  0.98179716    -0.27100
C404        C  0.47056978  0.03172575  0.97203906    -0.02300
C405        C  0.47911686  0.02885147  0.00242898     0.06300
C406        C  0.46645275  0.02575806  0.03036859     0.04400
H407        H  0.47604673  0.03464040  0.94472507     0.09500
H408        H  0.46767211  0.02229256  0.05826460     0.08300
N409        N  0.59674040  0.98983796  0.08103150    -0.26100
N410        N  0.60634127  0.98436191  0.06089090    -0.34000
C411        C  0.61227514  0.97453084  0.08163081     0.02200
C412        C  0.60630276  0.97393407  0.11659974     0.08300
C413        C  0.59653268  0.98382597  0.11529100    -0.04800
H414        H  0.62103868  0.96898436  0.07221917     0.08900
H415        H  0.58978958  0.98647682  0.13756691     0.10100
Cu416      Cu  0.61303345  0.99233090  0.00714820     0.44200
Cu417      Cu  0.58393594  0.00473113  0.06067066     0.42000
Cu418      Cu  0.59504829  0.02095306  0.96727982     0.43900
N419        N  0.62214392  0.00646367  0.95739234    -0.33500
N420        N  0.61605626  0.01758233  0.94334673    -0.27700
C421        C  0.62579864  0.02599127  0.91244534    -0.03800
C422        C  0.63860431  0.01980686  0.90668543     0.08400
C423        C  0.63583892  0.00738356  0.93568216     0.02200
H424        H  0.62366726  0.03585807  0.89543626     0.09800
H425        H  0.64371306  0.00011948  0.94131620     0.08900
N426        N  0.57329980  0.02088402  0.99634341    -0.34900
N427        N  0.56940139  0.01533178  0.03058509    -0.27100
C428        C  0.55382199  0.01611471  0.04063084    -0.02300
C429        C  0.54755300  0.02234628  0.01118767     0.06300
C430        C  0.56031146  0.02526275  0.98365236     0.04400
H431        H  0.54703170  0.01161394  0.06693859     0.09500
H432        H  0.56009286  0.03001632  0.95620968     0.08300
C433        C  0.51861319  0.01902573  0.97711988     0.24800
C434        C  0.53023200  0.02428194  0.00887495    -0.23300
C435        C  0.52513750  0.03138123  0.03829839     0.19700
C436        C  0.50878179  0.03322778  0.03599449     0.24700
C437        C  0.49701657  0.02778540  0.00432916    -0.23300
C438        C  0.50221961  0.02076501  0.97484599     0.19600
F439        F  0.49103653  0.01479025  0.94413392    -0.13200
F440        F  0.52257261  0.01138148  0.94862390    -0.15600
F441        F  0.50483980  0.04087581  0.06449691    -0.15600
F442        F  0.53631233  0.03707977  0.06903622    -0.13200
C443        C  0.35364840  0.99139883  0.19577244     0.24800
C444        C  0.33298112  0.98057244  0.18906494    -0.23300
C445        C  0.32605711  0.97819739  0.15325181     0.19700
C446        C  0.33949128  0.98653055  0.12471500     0.24700
C447        C  0.36020265  0.99761560  0.13138400    -0.23300
C448        C  0.36710110  0.99992783  0.16730196     0.19600
F449        F  0.38689110  0.01084584  0.17513885    -0.13200
F450        F  0.36092270  0.99348757  0.22992532    -0.15600
F451        F  0.33208497  0.98329770  0.09053181    -0.15600
F452        F  0.30625576  0.96828938  0.14577994    -0.13200
C453        C  0.17042248  0.83094413  0.30061585     0.24800
C454        C  0.15369794  0.82757047  0.31921158    -0.23300
C455        C  0.15524849  0.84371657  0.33731136     0.19700
C456        C  0.17306813  0.86267726  0.33690419     0.24700
C457        C  0.18981789  0.86600467  0.31841471    -0.23300
C458        C  0.18820140  0.84987785  0.30017035     0.19600
F459        F  0.20405586  0.85214431  0.28281887    -0.13200
F460        F  0.16990866  0.81574325  0.28381988    -0.15600
F461        F  0.17365369  0.87792221  0.35369583    -0.15600
F462        F  0.13933722  0.84139910  0.35455898    -0.13200
C463        C  0.05137955  0.66685662  0.14051470     0.24800
C464        C  0.03160659  0.65760845  0.12810653    -0.23300
C465        C  0.01862056  0.66123218  0.14597269     0.19700
C466        C  0.02518917  0.67366030  0.17606878     0.24700
C467        C  0.04503197  0.68312965  0.18827536    -0.23300
C468        C  0.05811635  0.67974283  0.17004964     0.19600
F469        F  0.07730373  0.68852726  0.18138914    -0.13200
F470        F  0.06430144  0.66379603  0.12350039    -0.15600
F471        F  0.01224785  0.67681339  0.19274099    -0.15600
F472        F  0.99939379  0.65234310  0.13477354    -0.13200
C473        C  0.02805026  0.51038924  0.99854241     0.24800
C474        C  0.01398883  0.49323950  0.97919706    -0.23300
C475        C  0.99782706  0.49273021  0.96243576     0.19700
C476        C  0.99561110  0.50883394  0.96543845     0.24700
C477        C  0.00957814  0.52595217  0.98506961    -0.23300
C478        C  0.02586402  0.52653145  0.00150659     0.19600
F479        F  0.04006262  0.54294415  0.01965788    -0.13200
F480        F  0.04428305  0.51181200  0.01385849    -0.15600
F481        F  0.97929048  0.50723782  0.95017722    -0.15600
F482        F  0.98362604  0.47631097  0.94428026    -0.13200
C483        C  0.97860373  0.35970356  0.81603540     0.24800
C484        C  0.97564487  0.35218733  0.85164145    -0.23300
C485        C  0.96533438  0.33129242  0.85711219     0.19700
C486        C  0.95784735  0.31834163  0.82768446     0.24700
C487        C  0.96053374  0.32599288  0.79231526    -0.23300
C488        C  0.97095784  0.34676503  0.78683673     0.19600
F489        F  0.97345563  0.35465069  0.75307491    -0.13200
F490        F  0.98941576  0.37965237  0.80907253    -0.15600
F491        F  0.94842652  0.29835709  0.83377117    -0.15600
F492        F  0.96217549  0.32324168  0.89082910    -0.13200
C493        C  0.67639610  0.05112507  0.83470941     0.24800
C494        C  0.67910270  0.03701950  0.81862584    -0.23300
C495        C  0.66866930  0.01728301  0.83210271     0.19700
C496        C  0.65570460  0.01174083  0.86109383     0.24700
C497        C  0.65269978  0.02575885  0.87670415    -0.23300
C498        C  0.66322204  0.04551603  0.86333137     0.19600
F499        F  0.66104741  0.05954525  0.87836004    -0.13200
F500        F  0.68596762  0.07021045  0.82195862    -0.15600
F501        F  0.64564551  0.99250493  0.87315766    -0.15600
F502        F  0.67120069  0.00338998  0.81750884    -0.13200
C503        C  0.83540414  0.17611861  0.62845688     0.24800
C504        C  0.84719663  0.18566965  0.65927307    -0.23300
C505        C  0.84155781  0.17529632  0.69257692     0.19700
C506        C  0.82436273  0.15607339  0.69513128     0.24700
C507        C  0.81243828  0.14669312  0.66447183    -0.23300
C508        C  0.81826674  0.15680227  0.63101064     0.19600
F509        F  0.80699520  0.14832831  0.60089786    -0.13200
F510        F  0.84000470  0.18567556  0.59596296    -0.15600
F511        F  0.81974133  0.14640010  0.72753276    -0.15600
F512        F  0.85297714  0.18341631  0.72265268    -0.13200
C513        C  0.61840065  0.97719685  0.18025147     0.24800
C514        C  0.61092020  0.96588624  0.14872114    -0.23300
C515        C  0.60865015  0.94720841  0.14760510     0.19700
C516        C  0.61356873  0.93981999  0.17770966     0.24700
C517        C  0.62143590  0.95125381  0.20940725    -0.23300
C518        C  0.62391441  0.97016766  0.21000770     0.19600
F519        F  0.63244708  0.98242339  0.23868332    -0.13200
F520        F  0.62130396  0.99557577  0.18170393    -0.15600
F521        F  0.61021776  0.92129325  0.17571544    -0.15600
F522        F  0.60121965  0.93585810  0.11752938    -0.13200
C523        C  0.68890994  0.85961014  0.33889988     0.24800
C524        C  0.67139422  0.85735360  0.32476960    -0.23300
C525        C  0.65777167  0.83990251  0.30581545     0.19700
C526        C  0.66150474  0.82496265  0.30112496     0.24700
C527        C  0.67895182  0.82710133  0.31538037    -0.23300
C528        C  0.69266813  0.84462570  0.33421250     0.19600
F529        F  0.70994402  0.84748610  0.34739534    -0.13200
F530        F  0.70266122  0.87654294  0.35640990    -0.15600
F531        F  0.64752775  0.80800629  0.28397619    -0.15600
F532        F  0.64035300  0.83686486  0.29305652    -0.13200
C533        C  0.66942883  0.98410396  0.50040732     0.24800
C534        C  0.68002187  0.97657722  0.48548020    -0.23300
C535        C  0.69876373  0.98249404  0.50028675     0.19700
C536        C  0.70683481  0.99585396  0.52899634     0.24700
C537        C  0.69622191  0.00328653  0.54380799    -0.23300
C538        C  0.67738266  0.99717754  0.52959544     0.19600
F539        F  0.66685152  0.00418965  0.54354648    -0.13200
F540        F  0.65117267  0.97847713  0.48731818    -0.17400
F541        F  0.72483579  0.00115066  0.54297635    -0.15600
F542        F  0.70957883  0.97579639  0.48644066    -0.13200
C543        C  0.94780547  0.63637279  0.83057970     0.24800
C544        C  0.95261804  0.63340793  0.79599690    -0.23300
C545        C  0.96195724  0.62287253  0.79296570     0.19700
C546        C  0.96661487  0.61572113  0.82377428     0.24700
C547        C  0.96219963  0.61908720  0.85844872    -0.23300
C548        C  0.95243200  0.62920992  0.86136606     0.19600
F549        F  0.94714926  0.63209339  0.89407555    -0.13200
F550        F  0.93927684  0.64689283  0.83490616    -0.15600
F551        F  0.97607780  0.60611178  0.81945829    -0.15600
F552        F  0.96648434  0.61928865  0.76012184    -0.13200
C553        C  0.00131879  0.72047270  0.50883227     0.24800
C554        C  0.99328587  0.70127817  0.52384170    -0.23300
C555        C  0.99780223  0.68837615  0.50813917     0.19700
C556        C  0.00975752  0.69438974  0.47745799     0.24700
C557        C  0.01778672  0.71358466  0.46234903    -0.23300
C558        C  0.01360726  0.72664755  0.47856401     0.19600
F559        F  0.02093428  0.74520335  0.46451149    -0.13200
F560        F  0.99755779  0.73339930  0.52390858    -0.15600
F561        F  0.01380289  0.68155012  0.46295185    -0.15600
F562        F  0.99015492  0.66969474  0.52185712    -0.13200
C563        C  0.73631980  0.72856359  0.49159374     0.24800
C564        C  0.72284930  0.70906519  0.50463623    -0.23300
C565        C  0.70439866  0.69696705  0.48693527     0.19700
C566        C  0.69961978  0.70412680  0.45637359     0.24700
C567        C  0.71302039  0.72364047  0.44346984    -0.23300
C568        C  0.73130909  0.73589529  0.46150321     0.19600
F569        F  0.74450986  0.75478532  0.44941241    -0.13200
F570        F  0.75412129  0.74065519  0.50846461    -0.15600
F571        F  0.68170995  0.69212488  0.43977826    -0.15600
F572        F  0.69118890  0.67799781  0.49867229    -0.13200
C573        C  0.82059536  0.65536937  0.66420504     0.24800
C574        C  0.82078263  0.67165433  0.64840446    -0.23300
C575        C  0.83878765  0.68777964  0.63436308     0.19700
C576        C  0.85606378  0.68748512  0.63551116     0.24700
C577        C  0.85582879  0.67115415  0.65102474    -0.23300
C578        C  0.83792412  0.65514144  0.66554208     0.19600
F579        F  0.83695806  0.63889440  0.68001105    -0.13200
F580        F  0.80350655  0.63930723  0.67741505    -0.15600
F581        F  0.87321260  0.70357367  0.62253360    -0.15600
F582        F  0.83994326  0.70424783  0.62062740    -0.13200
C583        C  0.37913935  0.07162255  0.82729504     0.24800
C584        C  0.38150111  0.06690141  0.79216499    -0.23300
C585        C  0.39063127  0.05622409  0.78780485     0.19700
C586        C  0.39619962  0.04944633  0.81782769     0.24700
C587        C  0.39318275  0.05358293  0.85286074    -0.23300
C588        C  0.38512196  0.06521699  0.85725953     0.19600
F589        F  0.38323853  0.07066754  0.89061753    -0.13200
F590        F  0.37046660  0.08188964  0.83298056    -0.15600
F591        F  0.40395268  0.03828351  0.81249130    -0.15600
F592        F  0.39445114  0.05249693  0.75445599    -0.13200
C593        C  0.29964775  0.02511772  0.50281532     0.24800
C594        C  0.31835872  0.03193098  0.51864026    -0.23300
C595        C  0.32985083  0.02509553  0.50517536     0.19700
C596        C  0.32279919  0.01177792  0.47630323     0.24700
C597        C  0.30396836  0.00477465  0.46079749    -0.23300
C598        C  0.29245087  0.01152764  0.47435162     0.19600
F599        F  0.27444930  0.00541058  0.45930459    -0.13200
F600        F  0.28809373  0.03122930  0.51548547    -0.15600
F601        F  0.33423061  0.00543639  0.46394262    -0.15600
F602        F  0.34814324  0.03169400  0.51941582    -0.13200
C603        C  0.35210185  0.18064373  0.68105477     0.24800
C604        C  0.33982992  0.16397407  0.65906939    -0.23300
C605        C  0.32373752  0.16280673  0.64052874     0.19700
C606        C  0.31983709  0.17773315  0.64431263     0.24700
C607        C  0.33198036  0.19428505  0.66655668    -0.23300
C608        C  0.34819984  0.19557909  0.68482670     0.19600
F609        F  0.36072038  0.21159005  0.70560242    -0.13200
F610        F  0.36826774  0.18284278  0.69826720    -0.15600
F611        F  0.30364734  0.17551814  0.62717656    -0.15600
F612        F  0.31118619  0.14681526  0.61976695    -0.13200
C613        C  0.06443661  0.39144013  0.16703633     0.24800
C614        C  0.04984237  0.37462701  0.18683768    -0.23300
C615        C  0.02996301  0.36407588  0.17424705     0.19700
C616        C  0.02489525  0.37008494  0.14243644     0.24700
C617        C  0.03943772  0.38706478  0.12322893    -0.23300
C618        C  0.05921413  0.39771877  0.13575571     0.19600
F619        F  0.07357058  0.41397239  0.11722143    -0.13200
F620        F  0.08370912  0.40217936  0.17839949    -0.15600
F621        F  0.00565187  0.35955810  0.13078579    -0.15600
F622        F  0.01544176  0.34767842  0.19220868    -0.13200
C623        C  0.00672633  0.30756468  0.52522369     0.24800
C624        C  0.98599095  0.29670114  0.51908929    -0.23300
C625        C  0.97873584  0.29215145  0.48335335     0.19700
C626        C  0.99193152  0.29874885  0.45445461     0.24700
C627        C  0.01263627  0.30996071  0.46066354    -0.23300
C628        C  0.01988118  0.31416547  0.49634279     0.19600
F629        F  0.03975871  0.32528546  0.50337057    -0.13200
F630        F  0.01439712  0.31161873  0.55924732    -0.15600
F631        F  0.98439909  0.29392816  0.42038176    -0.15600
F632        F  0.95889173  0.28184821  0.47612395    -0.13200
C633        C  0.30326887  0.32082694  0.49090894     0.24800
C634        C  0.28583352  0.30810248  0.47090120    -0.23300
C635        C  0.27268473  0.28832776  0.48303962     0.19700
C636        C  0.27695159  0.28138246  0.51465066     0.24700
C637        C  0.29425136  0.29421716  0.53494704    -0.23300
C638        C  0.30729771  0.31403922  0.52291968     0.19600
F639        F  0.32418770  0.32676819  0.54179449    -0.13200
F640        F  0.31614296  0.34004100  0.48002288    -0.15600
F641        F  0.26389594  0.26229531  0.52599087    -0.15600
F642        F  0.25589161  0.27562572  0.46390182    -0.13200
C643        C  0.16952543  0.32914188  0.34905112     0.24800
C644        C  0.18708466  0.34461885  0.33258407    -0.23300
C645        C  0.18708421  0.36071229  0.31636939     0.19700
C646        C  0.16992751  0.36124240  0.31646498     0.24700
C647        C  0.15239250  0.34575619  0.33295461    -0.23300
C648        C  0.15240096  0.32969406  0.34919112     0.19600
F649        F  0.13559983  0.31405766  0.36411008    -0.13200
F650        F  0.16860496  0.31301770  0.36398981    -0.15600
F651        F  0.17073115  0.37727663  0.30133835    -0.15600
F652        F  0.20386836  0.37632691  0.30136557    -0.13200
C653        C  0.65461455  0.67715903  0.12182561     0.24800
C654        C  0.63569397  0.67101798  0.10792679    -0.23300
C655        C  0.62452632  0.67730892  0.12474452     0.19700
C656        C  0.63239901  0.68998065  0.15449701     0.24700
C657        C  0.65130717  0.69604155  0.16851360    -0.23300
C658        C  0.66230038  0.68945680  0.15198480     0.19600
F659        F  0.68079570  0.69546373  0.16429236    -0.13200
F660        F  0.66554401  0.67094750  0.10658197    -0.15600
F661        F  0.62140317  0.69606135  0.16991743    -0.15600
F662        F  0.60624549  0.67166270  0.11173700    -0.13200
C663        C  0.66799846  0.65244389  0.81859112     0.24800
C664        C  0.66240657  0.63521878  0.83912458    -0.23300
C665        C  0.66831091  0.62251590  0.82821787     0.19700
C666        C  0.67976926  0.62702683  0.79725524     0.24700
C667        C  0.68511766  0.64408649  0.77629714    -0.23300
C668        C  0.67905107  0.65671874  0.78712733     0.19600
F669        F  0.68417856  0.67343455  0.76771045    -0.13200
F670        F  0.66228440  0.66482950  0.82848069    -0.15600
F671        F  0.68517004  0.61441834  0.78720655    -0.15600
F672        F  0.66326382  0.60591475  0.84795066    -0.13200
C673        C  0.37714967  0.34102703  0.85772581     0.24800
C674        C  0.36814081  0.35109045  0.86773384    -0.23300
C675        C  0.35070612  0.34696697  0.84987539     0.19700
C676        C  0.34263194  0.33326046  0.82172651     0.24700
C677        C  0.35167506  0.32319153  0.81157875    -0.23300
C678        C  0.36887506  0.32702479  0.83008708     0.19600
F679        F  0.37802503  0.31765416  0.82078849    -0.13200
F680        F  0.39369242  0.34439607  0.87536184    -0.15600
F681        F  0.32575401  0.32953647  0.80490067    -0.15600
F682        F  0.34172990  0.35651221  0.85923066    -0.13200
C683        C  0.52174266  0.51291666  0.96771585     0.24800
C684        C  0.52286367  0.53015056  0.97952310    -0.23300
C685        C  0.50586441  0.52808627  0.99459693     0.19700
C686        C  0.48832349  0.50921755  0.99859914     0.24700
C687        C  0.48731579  0.49199580  0.98735528    -0.23300
C688        C  0.50409828  0.49405173  0.97137815     0.19600
F689        F  0.50368951  0.47772524  0.96044332    -0.13200
F690        F  0.53791443  0.51413855  0.95389219    -0.15600
F691        F  0.47210025  0.50789928  0.01241651    -0.15600
F692        F  0.50597809  0.54438448  0.00460895    -0.13200
C693        C  0.35694878  0.39062683  0.17281286     0.24800
C694        C  0.34888669  0.38769685  0.13774601    -0.23300
C695        C  0.32817836  0.37839648  0.13346131     0.19700
C696        C  0.31581995  0.37222254  0.16353651     0.24700
C697        C  0.32385593  0.37524795  0.19873497    -0.23300
C698        C  0.34459068  0.38440411  0.20294255     0.19600
F699        F  0.35309636  0.38768338  0.23622812    -0.13200
F700        F  0.37677088  0.39902013  0.17806807    -0.15600
F701        F  0.29589068  0.36274450  0.15793355    -0.15600
F702        F  0.31980914  0.37554545  0.10009514    -0.13200
loop_ 
_geom_bond_atom_site_label_1 
_geom_bond_atom_site_label_2 
_geom_bond_distance 
_geom_bond_site_symmetry_2 
_ccdc_geom_bond_type 
N1            N2   1.321       .  A
N1            C5   1.345       .  A
N1           Cu9   2.073       .  S
N2            C3   1.342       .  A
N2           Cu8   2.057       .  S
C3            C4   1.379       .  A
C3            H6   1.082       .  S
C4            C5   1.384       .  A
C4          C674   1.469       .  S
C5            H7   1.082       .  S
Cu8          N11   2.058   1_556  S
Cu9          N19   2.073       .  S
Cu10         N12   2.079       .  S
Cu10         N18   2.079       .  S
N11          N12   1.321       .  A
N11          C15   1.341       .  A
N12          C13   1.347       .  A
C13          C14   1.389       .  A
C13          H16   1.082       .  S
C14          C15   1.383       .  A
C14         C694   1.483       .  S
C15          H17   1.082       .  S
N18          N19   1.323   1_554  A
N18          C22   1.345       .  A
N19          C20   1.345       .  A
C20          C21   1.384       .  A
C20          H23   1.082       .  S
C21          C22   1.385   1_556  A
C21         C687   1.480       .  S
C22          H24   1.082       .  S
N25          N26   1.322       .  A
N25          C29   1.343       .  A
N25         Cu33   2.069       .  S
N26          C27   1.345       .  A
N26         Cu32   2.068       .  S
C27          C28   1.383       .  A
C27          H30   1.082       .  S
C28          C29   1.381       .  A
C28         C664   1.472       .  S
C29          H31   1.082       .  S
Cu32         N35   2.068   1_556  S
Cu33         N43   2.070       .  S
Cu34         N36   2.072       .  S
Cu34         N42   2.072   1_554  S
N35          N36   1.322       .  A
N35          C39   1.342       .  A
N36          C37   1.346       .  A
C37          C38   1.383       .  A
C37          H40   1.082       .  S
C38          C39   1.382       .  A
C38         C654   1.474       .  S
C39          H41   1.082       .  S
N42          N43   1.321       .  A
N42          C46   1.344   1_556  A
N43          C44   1.344       .  A
C44          C45   1.386       .  A
C44          H47   1.081       .  S
C45          C46   1.387   1_556  A
C45         C684   1.483       .  S
C46          H48   1.082       .  S
N49          N50   1.322       .  A
N49          C53   1.345       .  A
N49         Cu57   2.075       .  S
N50          C51   1.346       .  A
N50         Cu56   2.077       .  S
C51          C52   1.385       .  A
C51          H54   1.082       .  S
C52          C53   1.383       .  A
C52         C634   1.478       .  S
C53          H55   1.082       .  S
Cu56         N59   2.077       .  S
Cu57         N67   2.076       .  S
Cu58         N60   2.081       .  S
Cu58         N66   2.081       .  S
N59          N60   1.321       .  A
N59          C63   1.345       .  A
N60          C61   1.346       .  A
C61          C62   1.389       .  A
C61          H64   1.081       .  S
C62          C63   1.387       .  A
C62         C697   1.489       .  S
C63          H65   1.081       .  S
N66          N67   1.322       .  A
N66          C70   1.346       .  A
N67          C68   1.345       .  A
C68          C69   1.387       .  A
C68          H71   1.081       .  S
C69          C70   1.388       .  A
C69         C644   1.487       .  S
C70          H72   1.082       .  S
N73          N74   1.320       .  A
N73          C77   1.345       .  A
N73         Cu81   2.076       .  S
N74          C75   1.345       .  A
N74         Cu80   2.070       .  S
C75          C76   1.387       .  A
C75          H78   1.081       .  S
C76          C77   1.388       .  A
C76         C614   1.485       .  S
C77          H79   1.081       .  S
Cu80         N83   2.070       .  S
Cu81         N91   2.077       .  S
Cu82         N84   2.075       .  S
Cu82         N90   2.075       .  S
N83          N84   1.322       .  A
N83          C87   1.343       .  A
N84          C85   1.345       .  A
C85          C86   1.386       .  A
C85          H88   1.082       .  S
C86          C87   1.383       .  A
C86         C627   1.479       .  S
C87          H89   1.082       .  S
N90          N91   1.322       .  A
N90          C94   1.345       .  A
N91          C92   1.345       .  A
C92          C93   1.386       .  A
C92          H95   1.081       .  S
C93          C94   1.387       .  A
C93         C647   1.485       .  S
C94          H96   1.082       .  S
N97          N98   1.320       .  A
N97         C101   1.347       .  A
N97        Cu105   2.082       .  S
N98          C99   1.344       .  A
N98        Cu104   2.062       .  S
C99         C100   1.383       .  A
C99         H102   1.082       .  S
C100        C101   1.387       .  A
C100        C637   1.479       .  S
C101        H103   1.082       .  S
Cu104       N107   2.061       .  S
Cu105       N115   2.083       .  S
Cu106       N108   2.070       .  S
Cu106       N114   2.071       .  S
N107        N108   1.322       .  A
N107        C111   1.341       .  A
N108        C109   1.344       .  A
C109        C110   1.384       .  A
C109        H112   1.082       .  S
C110        C111   1.381       .  A
C110        C677   1.474       .  S
C111        H113   1.082       .  S
N114        N115   1.322       .  A
N114        C118   1.345       .  A
N115        C116   1.345       .  A
C116        C117   1.387       .  A
C116        H119   1.081       .  S
C117        C118   1.387       .  A
C117        C607   1.487       .  S
C118        H120   1.082       .  S
N121        N122   1.321       .  A
N121        C125   1.345       .  A
N121       Cu129   2.072       .  S
N122        C123   1.342       .  A
N122       Cu128   2.066       .  S
C123        C124   1.386       .  A
C123        H126   1.081       .  S
C124        C125   1.388       .  A
C124        C584   1.484       .  S
C125        H127   1.081       .  S
Cu128       N131   2.067       .  S
Cu129       N139   2.073       .  S
Cu130       N132   2.090       .  S
Cu130       N138   2.090       .  S
N131        N132   1.322       .  A
N131        C135   1.344       .  A
N132        C133   1.348       .  A
C133        C134   1.388       .  A
C133        H136   1.082       .  S
C134        C135   1.383       .  A
C134        C594   1.481       .  S
C135        H137   1.082       .  S
N138        N139   1.322       .  A
N138        C142   1.347       .  A
N139        C140   1.345       .  A
C140        C141   1.386       .  A
C140        H143   1.081       .  S
C141        C142   1.390       .  A
C141        C604   1.489       .  S
C142        H144   1.081       .  S
N145        N146   1.322       .  A
N145        C149   1.347       .  A
N145       Cu153   2.081       .  S
N146        C147   1.343       .  A
N146       Cu152   2.065       .  S
C147        C148   1.381       .  A
C147        H150   1.082       .  S
C148        C149   1.385       .  A
C148        C564   1.477       .  S
C149        H151   1.082       .  S
Cu152       N155   2.065       .  S
Cu153       N163   2.081       .  S
Cu154       N156   2.077       .  S
Cu154       N162   2.077       .  S
N155        N156   1.322       .  A
N155        C159   1.344       .  A
N156        C157   1.345       .  A
C157        C158   1.385       .  A
C157        H160   1.082       .  S
C158        C159   1.383       .  A
C158        C667   1.477       .  S
C159        H161   1.083       .  S
N162        N163   1.322       .  A
N162        C166   1.345       .  A
N163        C164   1.346       .  A
C164        C165   1.388       .  A
C164        H167   1.081       .  S
C165        C166   1.387       .  A
C165        C574   1.487       .  S
C166        H168   1.082       .  S
N169        N170   1.321       .  A
N169        C173   1.345       .  A
N169       Cu177   2.072       .  S
N170        C171   1.345       .  A
N170       Cu176   2.077       .  S
C171        C172   1.388       .  A
C171        H174   1.082       .  S
C172        C173   1.387       .  A
C172        C544   1.486       .  S
C173        H175   1.082       .  S
Cu176       N179   2.078       .  S
Cu177       N187   2.073       .  S
Cu178       N180   2.081       .  S
Cu178       N186   2.081       .  S
N179        N180   1.323       .  A
N179        C183   1.345       .  A
N180        C181   1.346       .  A
C181        C182   1.385       .  A
C181        H184   1.083       .  S
C182        C183   1.384       .  A
C182        C554   1.480       .  S
C183        H185   1.083       .  S
N186        N187   1.322       .  A
N186        C190   1.346       .  A
N187        C188   1.345       .  A
C188        C189   1.385       .  A
C188        H191   1.081       .  S
C189        C190   1.387       .  A
C189        C577   1.484       .  S
C190        H192   1.082       .  S
N193        N194   1.319       .  A
N193        C197   1.345       .  A
N193       Cu201   2.073       .  S
N194        C195   1.343       .  A
N194       Cu200   2.075       .  S
C195        C196   1.391       .  A
C195        H198   1.080       .  S
C196        C197   1.392       .  A
C196        C517   1.495       .  S
C197        H199   1.080       .  S
Cu200       N203   2.075       .  S
Cu201       N211   2.073       .  S
Cu202       N204   2.073       .  S
Cu202       N210   2.074       .  S
N203        N204   1.322       .  A
N203        C207   1.345       .  A
N204        C205   1.344       .  A
C205        C206   1.386       .  A
C205        H208   1.082       .  S
C206        C207   1.386       .  A
C206        C534   1.482       .  S
C207        H209   1.082       .  S
N210        N211   1.322       .  A
N210        C214   1.346       .  A
N211        C212   1.343       .  A
C212        C213   1.384       .  A
C212        H215   1.082       .  S
C213        C214   1.385       .  A
C213        C524   1.479       .  S
C214        H216   1.082       .  S
N217        N218   1.323       .  A
N217        C221   1.346       .  A
N217       Cu225   2.076       .  S
N218        C219   1.345       .  A
N218       Cu224   2.076       .  S
C219        C220   1.382       .  A
C219        H222   1.082       .  S
C220        C221   1.383       .  A
C220        C567   1.475       .  S
C221        H223   1.082       .  S
Cu224       N227   2.075       .  S
Cu225       N235   2.076       .  S
Cu226       N228   2.068       .  S
Cu226       N234   2.069       .  S
N227        N228   1.322       .  A
N227        C231   1.344       .  A
N228        C229   1.344       .  A
C229        C230   1.383       .  A
C229        H232   1.082       .  S
C230        C231   1.385       .  A
C230        C657   1.477       .  S
C231        H233   1.082       .  S
N234        N235   1.321       .  A
N234        C238   1.343       .  A
N235        C236   1.345       .  A
C236        C237   1.386       .  A
C236        H239   1.082       .  S
C237        C238   1.386       .  A
C237        C527   1.482       .  S
C238        H240   1.082       .  S
N241        N242   1.321       .  A
N241        C245   1.346       .  A
N241       Cu249   2.077       .  S
N242        C243   1.343       .  A
N242       Cu248   2.060       .  S
C243        C244   1.380       .  A
C243        H246   1.082       .  S
C244        C245   1.385       .  A
C244        C537   1.473       .  S
C245        H247   1.082       .  S
Cu248       N251   2.060       .  S
Cu249       N259   2.077       .  S
Cu250       N252   2.069       .  S
Cu250       N258   2.070       .  S
N251        N252   1.321       .  A
N251        C255   1.342       .  A
N252        C253   1.344       .  A
C253        C254   1.385       .  A
C253        H256   1.082       .  S
C254        C255   1.382       .  A
C254        C494   1.476       .  S
C255        H257   1.082       .  S
N258        N259   1.323       .  A
N258        C262   1.343       .  A
N259        C260   1.345       .  A
C260        C261   1.385       .  A
C260        H263   1.081       .  S
C261        C262   1.384       .  A
C261        C507   1.480       .  S
C262        H264   1.082       .  S
N265        N266   1.321       .  A
N265        C269   1.346       .  A
N265       Cu273   2.071       .  S
N266        C267   1.341       .  A
N266       Cu272   2.062       .  S
C267        C268   1.382       .  A
C267        H270   1.082       .  S
C268        C269   1.385       .  A
C268        C487   1.476       .  S
C269        H271   1.082       .  S
Cu272       N275   2.062       .  S
Cu273       N283   2.072       .  S
Cu274       N276   2.077       .  S
Cu274       N282   2.077       .  S
N275        N276   1.321       .  A
N275        C279   1.342       .  A
N276        C277   1.346       .  A
C277        C278   1.388       .  A
C277        H280   1.081       .  S
C278        C279   1.385       .  A
C278        C624   1.484       .  S
C279        H281   1.081       .  S
N282        N283   1.322       .  A
N282        C286   1.345       .  A
N283        C284   1.343       .  A
C284        C285   1.386       .  A
C284        H287   1.081       .  S
C285        C286   1.387       .  A
C285        C504   1.485       .  S
C286        H288   1.081       .  S
N289        N290   1.320       .  A
N289        C293   1.345       .  A
N289       Cu297   2.072       .  S
N290        C291   1.344       .  A
N290       Cu296   2.073       .  S
C291        C292   1.388       .  A
C291        H294   1.081       .  S
C292        C293   1.388       .  A
C292        C547   1.488       .  S
C293        H295   1.081       .  S
Cu296       N299   2.074   1_656  S
Cu297       N307   2.072       .  S
Cu298       N300   2.086       .  S
Cu298       N306   2.086       .  S
N299        N300   1.324       .  A
N299        C303   1.344       .  A
N300        C301   1.347       .  A
C301        C302   1.385       .  A
C301        H304   1.082       .  S
C302        C303   1.383       .  A
C302        C464   1.478       .  S
C303        H305   1.082       .  S
N306        N307   1.321   1_454  A
N306        C310   1.348       .  A
N307        C308   1.343       .  A
C308        C309   1.386   1_655  A
C308        H311   1.081       .  S
C309        C310   1.391   1_556  A
C309        C477   1.490       .  S
C310        H312   1.082       .  S
N313        N314   1.321       .  A
N313        C317   1.347       .  A
N313       Cu321   2.080       .  S
N314        C315   1.343       .  A
N314       Cu320   2.058   1_554  S
C315        C316   1.380       .  A
C315        H318   1.082       .  S
C316        C317   1.385       .  A
C316        C617   1.473       .  S
C317        H319   1.082       .  S
Cu320       N323   2.058   1_455  S
Cu321       N331   2.081   1_554  S
Cu322       N324   2.077   1_455  S
Cu322       N330   2.078       .  S
N323        N324   1.320       .  A
N323        C327   1.343       .  A
N324        C325   1.343       .  A
C325        C326   1.390       .  A
C325        H328   1.081       .  S
C326        C327   1.385       .  A
C326        C484   1.486       .  S
C327        H329   1.081       .  S
N330        N331   1.323       .  A
N330        C334   1.346       .  A
N331        C332   1.345   1_556  A
C332        C333   1.386   1_554  A
C332        H335   1.081       .  S
C333        C334   1.387       .  A
C333        C474   1.486       .  S
C334        H336   1.082       .  S
N337        N338   1.323       .  A
N337        C341   1.347       .  A
N337       Cu345   2.087       .  S
N338        C339   1.346       .  A
N338       Cu344   2.080       .  S
C339        C340   1.384       .  A
C339        H342   1.082       .  S
C340        C341   1.386       .  A
C340        C467   1.481       .  S
C341        H343   1.082       .  S
Cu344       N347   2.079       .  S
Cu345       N355   2.087       .  S
Cu346       N348   2.078       .  S
Cu346       N354   2.078       .  S
N347        N348   1.322       .  A
N347        C351   1.346       .  A
N348        C349   1.346       .  A
C349        C350   1.385       .  A
C349        H352   1.082       .  S
C350        C351   1.386       .  A
C350        C557   1.483       .  S
C351        H353   1.082       .  S
N354        N355   1.322       .  A
N354        C358   1.346       .  A
N355        C356   1.347       .  A
C356        C357   1.390       .  A
C356        H359   1.081       .  S
C357        C358   1.388       .  A
C357        C454   1.492       .  S
C358        H360   1.081       .  S
N361        N362   1.321       .  A
N361        C365   1.348       .  A
N361       Cu369   2.085       .  S
N362        C363   1.340       .  A
N362       Cu368   2.055       .  S
C363        C364   1.381       .  A
C363        H366   1.082       .  S
C364        C365   1.390       .  A
C364        C444   1.481       .  S
C365        H367   1.082       .  S
Cu368       N371   2.056       .  S
Cu369       N379   2.086       .  S
Cu370       N372   2.094       .  S
Cu370       N378   2.095       .  S
N371        N372   1.321       .  A
N371        C375   1.344       .  A
N372        C373   1.348       .  A
C373        C374   1.389       .  A
C373        H376   1.082       .  S
C374        C375   1.381       .  A
C374        C597   1.480   1_565  S
C375        H377   1.082   1_565  S
N378        N379   1.324       .  A
N378        C382   1.348       .  A
N379        C380   1.346       .  A
C380        C381   1.388       .  A
C380        H383   1.081       .  S
C381        C382   1.389       .  A
C381        C457   1.493       .  S
C382        H384   1.081       .  S
N385        N386   1.321       .  A
N385        C389   1.345       .  A
N385       Cu393   2.069       .  S
N386        C387   1.340       .  A
N386       Cu392   2.061       .  S
C387        C388   1.383       .  A
C387        H390   1.082       .  S
C388        C389   1.386       .  A
C388        C587   1.478       .  S
C389        H391   1.082       .  S
Cu392       N395   2.060   1_556  S
Cu393       N403   2.069       .  S
Cu394       N396   2.076       .  S
Cu394       N402   2.076       .  S
N395        N396   1.320       .  A
N395        C399   1.343       .  A
N396        C397   1.345       .  A
C397        C398   1.389       .  A
C397        H400   1.081       .  S
C398        C399   1.386       .  A
C398        C447   1.485   1_545  S
C399        H401   1.081       .  S
N402        N403   1.321   1_554  A
N402        C406   1.344       .  A
N403        C404   1.344       .  A
C404        C405   1.387   1_556  A
C404        H407   1.081       .  S
C405        C406   1.387       .  A
C405        C437   1.485       .  S
C406        H408   1.081       .  S
N409        N410   1.322       .  A
N409        C413   1.346       .  A
N409       Cu417   2.077   1_565  S
N410        C411   1.344       .  A
N410       Cu416   2.069       .  S
C411        C412   1.382       .  A
C411        H414   1.082       .  S
C412        C413   1.385       .  A
C412        C514   1.477       .  S
C413        H415   1.082       .  S
Cu416       N419   2.068   1_564  S
Cu417       N427   2.077       .  S
Cu418       N420   2.066       .  S
Cu418       N426   2.067       .  S
N419        N420   1.321       .  A
N419        C423   1.344       .  A
N420        C421   1.343       .  A
C421        C422   1.384       .  A
C421        H424   1.083       .  S
C422        C423   1.384       .  A
C422        C497   1.477       .  S
C423        H425   1.082       .  S
N426        N427   1.322   1_556  A
N426        C430   1.343       .  A
N427        C428   1.346       .  A
C428        C429   1.386       .  A
C428        H431   1.081       .  S
C429        C430   1.384   1_554  A
C429        C434   1.481       .  S
C430        H432   1.082       .  S
C433        C434   1.407   1_556  A
C433        C438   1.397       .  A
C433        F440   1.358       .  S
C434        C435   1.406       .  A
C435        C436   1.400       .  A
C435        F442   1.358       .  S
C436        C437   1.409       .  A
C436        F441   1.357       .  S
C437        C438   1.409   1_554  A
C438        F439   1.357       .  S
C443        C444   1.408       .  A
C443        C448   1.398       .  A
C443        F450   1.358       .  S
C444        C445   1.404       .  A
C445        C446   1.398       .  A
C445        F452   1.357       .  S
C446        C447   1.410       .  A
C446        F451   1.357       .  S
C447        C448   1.408       .  A
C448        F449   1.357   1_565  S
C453        C454   1.408       .  A
C453        C458   1.401       .  A
C453        F460   1.357       .  S
C454        C455   1.410       .  A
C455        C456   1.403       .  A
C455        F462   1.357       .  S
C456        C457   1.409       .  A
C456        F461   1.357       .  S
C457        C458   1.409       .  A
C458        F459   1.357       .  S
C463        C464   1.406       .  A
C463        C468   1.402       .  A
C463        F470   1.358       .  S
C464        C465   1.405       .  A
C465        C466   1.399       .  A
C465        F472   1.358   1_455  S
C466        C467   1.407       .  A
C466        F471   1.358       .  S
C467        C468   1.407       .  A
C468        F469   1.358       .  S
C473        C474   1.408       .  A
C473        C478   1.401   1_556  A
C473        F480   1.358   1_556  S
C474        C475   1.407   1_455  A
C475        C476   1.400       .  A
C475        F482   1.357       .  S
C476        C477   1.410   1_655  A
C476        F481   1.357       .  S
C477        C478   1.409   1_556  A
C478        F479   1.357       .  S
C483        C484   1.408       .  A
C483        C488   1.394       .  A
C483        F490   1.356       .  S
C484        C485   1.413       .  A
C485        C486   1.401       .  A
C485        F492   1.357       .  S
C486        C487   1.405       .  A
C486        F491   1.358       .  S
C487        C488   1.404       .  A
C488        F489   1.358       .  S
C493        C494   1.406       .  A
C493        C498   1.397       .  A
C493        F500   1.358       .  S
C494        C495   1.406       .  A
C495        C496   1.398       .  A
C495        F502   1.358       .  S
C496        C497   1.406       .  A
C496        F501   1.358   1_545  S
C497        C498   1.406       .  A
C498        F499   1.358       .  S
C503        C504   1.409       .  A
C503        C508   1.400       .  A
C503        F510   1.357       .  S
C504        C505   1.409       .  A
C505        C506   1.397       .  A
C505        F512   1.357       .  S
C506        C507   1.405       .  A
C506        F511   1.358       .  S
C507        C508   1.407       .  A
C508        F509   1.357       .  S
C513        C514   1.402       .  A
C513        C518   1.398       .  A
C513        F520   1.358       .  S
C514        C515   1.403       .  A
C515        C516   1.400       .  A
C515        F522   1.358       .  S
C516        C517   1.413       .  A
C516        F521   1.356       .  S
C517        C518   1.414       .  A
C518        F519   1.356       .  S
C523        C524   1.407       .  A
C523        C528   1.401       .  A
C523        F530   1.358       .  S
C524        C525   1.405       .  A
C525        C526   1.396       .  A
C525        F532   1.358       .  S
C526        C527   1.407       .  A
C526        F531   1.357       .  S
C527        C528   1.408       .  A
C528        F529   1.358       .  S
C533        C534   1.408       .  A
C533        C538   1.400       .  A
C533        F540   1.358       .  S
C534        C535   1.409       .  A
C535        C536   1.398       .  A
C535        F542   1.357       .  S
C536        C537   1.402   1_565  A
C536        F541   1.358   1_565  S
C537        C538   1.404   1_545  A
C538        F539   1.358   1_565  S
C543        C544   1.408       .  A
C543        C548   1.399       .  A
C543        F550   1.357       .  S
C544        C545   1.408       .  A
C545        C546   1.400       .  A
C545        F552   1.357       .  S
C546        C547   1.410       .  A
C546        F551   1.357       .  S
C547        C548   1.408       .  A
C548        F549   1.357       .  S
C553        C554   1.406   1_455  A
C553        C558   1.401       .  A
C553        F560   1.358   1_455  S
C554        C555   1.406       .  A
C555        C556   1.400   1_655  A
C555        F562   1.358       .  S
C556        C557   1.407       .  A
C556        F561   1.358       .  S
C557        C558   1.408       .  A
C558        F559   1.358       .  S
C563        C564   1.406       .  A
C563        C568   1.401       .  A
C563        F570   1.358       .  S
C564        C565   1.406       .  A
C565        C566   1.398       .  A
C565        F572   1.358       .  S
C566        C567   1.404       .  A
C566        F571   1.358       .  S
C567        C568   1.405       .  A
C568        F569   1.358       .  S
C573        C574   1.409       .  A
C573        C578   1.401       .  A
C573        F580   1.357       .  S
C574        C575   1.408       .  A
C575        C576   1.399       .  A
C575        F582   1.357       .  S
C576        C577   1.406       .  A
C576        F581   1.357       .  S
C577        C578   1.408       .  A
C578        F579   1.358       .  S
C583        C584   1.408       .  A
C583        C588   1.397       .  A
C583        F590   1.357       .  S
C584        C585   1.410       .  A
C585        C586   1.397       .  A
C585        F592   1.357       .  S
C586        C587   1.404       .  A
C586        F591   1.358       .  S
C587        C588   1.407       .  A
C588        F589   1.358       .  S
C593        C594   1.406       .  A
C593        C598   1.401       .  A
C593        F600   1.357       .  S
C594        C595   1.407       .  A
C595        C596   1.401       .  A
C595        F602   1.358       .  S
C596        C597   1.407       .  A
C596        F601   1.358       .  S
C597        C598   1.405       .  A
C598        F599   1.357       .  S
C603        C604   1.409       .  A
C603        C608   1.400       .  A
C603        F610   1.357       .  S
C604        C605   1.408       .  A
C605        C606   1.400       .  A
C605        F612   1.357       .  S
C606        C607   1.408       .  A
C606        F611   1.357       .  S
C607        C608   1.408       .  A
C608        F609   1.357       .  S
C613        C614   1.410       .  A
C613        C618   1.400       .  A
C613        F620   1.357       .  S
C614        C615   1.410       .  A
C615        C616   1.399       .  A
C615        F622   1.357       .  S
C616        C617   1.404       .  A
C616        F621   1.358       .  S
C617        C618   1.402       .  A
C618        F619   1.358       .  S
C623        C624   1.409   1_455  A
C623        C628   1.397       .  A
C623        F630   1.357       .  S
C624        C625   1.408       .  A
C625        C626   1.399       .  A
C625        F632   1.357       .  S
C626        C627   1.407   1_655  A
C626        F631   1.358       .  S
C627        C628   1.405       .  A
C628        F629   1.358       .  S
C633        C634   1.405       .  A
C633        C638   1.399       .  A
C633        F640   1.358       .  S
C634        C635   1.407       .  A
C635        C636   1.401       .  A
C635        F642   1.358       .  S
C636        C637   1.406       .  A
C636        F641   1.358       .  S
C637        C638   1.407       .  A
C638        F639   1.358       .  S
C643        C644   1.408       .  A
C643        C648   1.399       .  A
C643        F650   1.357       .  S
C644        C645   1.409       .  A
C645        C646   1.401       .  A
C645        F652   1.357       .  S
C646        C647   1.408       .  A
C646        F651   1.358       .  S
C647        C648   1.407       .  A
C648        F649   1.357       .  S
C653        C654   1.405       .  A
C653        C658   1.397       .  A
C653        F660   1.358       .  S
C654        C655   1.405       .  A
C655        C656   1.400       .  A
C655        F662   1.358       .  S
C656        C657   1.407       .  A
C656        F661   1.358       .  S
C657        C658   1.405       .  A
C658        F659   1.358       .  S
C663        C664   1.404       .  A
C663        C668   1.399       .  A
C663        F670   1.358       .  S
C664        C665   1.404       .  A
C665        C666   1.398       .  A
C665        F672   1.358       .  S
C666        C667   1.406       .  A
C666        F671   1.358       .  S
C667        C668   1.408       .  A
C668        F669   1.358       .  S
C673        C674   1.403       .  A
C673        C678   1.396       .  A
C673        F680   1.358       .  S
C674        C675   1.404       .  A
C675        C676   1.397       .  A
C675        F682   1.358       .  S
C676        C677   1.407       .  A
C676        F681   1.358       .  S
C677        C678   1.406       .  A
C678        F679   1.357       .  S
C683        C684   1.409       .  A
C683        C688   1.400       .  A
C683        F690   1.357       .  S
C684        C685   1.407       .  A
C685        C686   1.398       .  A
C685        F692   1.357   1_556  S
C686        C687   1.406       .  A
C686        F691   1.358   1_556  S
C687        C688   1.406       .  A
C688        F689   1.358       .  S
C693        C694   1.406       .  A
C693        C698   1.400       .  A
C693        F700   1.358       .  S
C694        C695   1.408       .  A
C695        C696   1.399       .  A
C695        F702   1.358       .  S
C696        C697   1.409       .  A
C696        F701   1.357       .  S
C697        C698   1.411       .  A
C698        F699   1.357       .  S
