geometry optimzed in LAMMPS
_audit_creation_date              2020-11-30 
_audit_creation_method            'lammps2cif' 
_symmetry_space_group_name_H-M    'P1' 
_symmetry_Int_Tables_number       1 
_symmetry_cell_setting            triclinic 
loop_ 
_symmetry_equiv_pos_as_xyz 
  x,y,z 
_cell_length_a                    28.766569194208746 
_cell_length_b                    28.254252089717113 
_cell_length_c                    32.36637762617364 
_cell_angle_alpha                 90.75319218119274 
_cell_angle_beta                  93.24841656318995 
_cell_angle_gamma                 90.29501130064394 
loop_ 
_atom_site_label 
_atom_site_type_symbol 
_atom_site_fract_x 
_atom_site_fract_y 
_atom_site_fract_z 
_atom_site_charge 
N1          N  0.24594244  0.76240435  0.31902042    -0.08100
N2          N  0.21986886  0.80080799  0.32141606    -0.60220
N3          N  0.31078502  0.69213509  0.26314539    -0.07780
N4          N  0.32791596  0.68998059  0.22620933    -0.62340
N5          N  0.26729927  0.67769597  0.26122061    -0.07370
N6          N  0.25365104  0.66596842  0.22280044    -0.60190
N7          N  0.29043062  0.77449544  0.32240361    -0.07050
N8          N  0.29535021  0.82077829  0.32692951    -0.62700
C9          C  0.25118786  0.83698502  0.32641512     0.94080
C10         C  0.29197976  0.67346376  0.20134410     0.93860
N11         N  0.40314498  0.63511993  0.35041310    -0.08280
N12         N  0.42993558  0.59962918  0.33913408    -0.60790
N13         N  0.38465278  0.74836603  0.37599278    -0.06400
N14         N  0.41771181  0.78123517  0.37665127    -0.62050
N15         N  0.39083106  0.72124564  0.40854056    -0.08310
N16         N  0.42713622  0.73576990  0.43199791    -0.61060
N17         N  0.39521976  0.66363220  0.31896803    -0.06040
N18         N  0.41563506  0.64839524  0.28606728    -0.62130
Mn19       Mn  0.34556021  0.72101634  0.32000340     1.18440
C20         C  0.43735151  0.60869945  0.29878342     0.96160
C21         C  0.44369785  0.77330689  0.41212524     0.96830
N22         N  0.20892157  0.60657075  0.31568734    -0.08330
N23         N  0.19688044  0.57492221  0.28606049    -0.64640
N24         N  0.18796741  0.67118356  0.40133925    -0.07130
N25         N  0.15100106  0.67419860  0.42372127    -0.65310
N26         N  0.18058874  0.69439889  0.36669013    -0.07840
N27         N  0.13891778  0.71379540  0.36492498    -0.64900
N28         N  0.21625104  0.58465252  0.35117408    -0.06730
N29         N  0.21012640  0.53874263  0.34662967    -0.65590
Mn30       Mn  0.22441265  0.68539016  0.31440444     1.10660
C31         C  0.19775983  0.53277435  0.30627452     0.97380
C32         C  0.12083909  0.70128012  0.40076079     0.97460
N33         N  0.32417582  0.66220541  0.46388893    -0.07850
N34         N  0.33886575  0.67235224  0.50252287    -0.63220
N35         N  0.29877206  0.56467544  0.41397883    -0.07160
N36         N  0.29429837  0.52284341  0.43117746    -0.59950
N37         N  0.34300697  0.57517634  0.41121684    -0.08470
N38         N  0.36929924  0.54062153  0.42595255    -0.62790
N39         N  0.27900306  0.65331663  0.46207469    -0.07460
N40         N  0.26237053  0.65700872  0.49901809    -0.59970
Mn41       Mn  0.36607878  0.64823001  0.40875344     1.20190
Mn42       Mn  0.24464365  0.61889229  0.40765976     1.10090
Cl43       Cl  0.29497022  0.66897179  0.36304390    -0.87940
C44         C  0.29975534  0.66931780  0.52398105     0.94390
C45         C  0.33860093  0.50790178  0.43751184     0.94190
N46         N  0.31808146  0.65424567  0.96349452    -0.08100
N47         N  0.33276196  0.66548066  0.00179762    -0.60220
N48         N  0.29289037  0.55805575  0.91070957    -0.07780
N49         N  0.28798238  0.51425152  0.92370548    -0.62340
N50         N  0.33719369  0.56850443  0.90839131    -0.07370
N51         N  0.36313517  0.53197206  0.91924866    -0.60190
N52         N  0.27296397  0.64528791  0.96172960    -0.07050
N53         N  0.25632977  0.64966398  0.99869896    -0.62700
C54         C  0.29384438  0.66271031  0.02335029     0.94080
C55         C  0.33211121  0.49807502  0.92797461     0.93860
N56         N  0.20492515  0.60302971  0.81359315    -0.08280
N57         N  0.19435770  0.57189620  0.78317785    -0.60790
N58         N  0.18252851  0.66561850  0.90023437    -0.06400
N59         N  0.14523465  0.66856713  0.92224484    -0.62050
N60         N  0.17593363  0.68972328  0.86592810    -0.08310
N61         N  0.13455179  0.70975005  0.86414200    -0.61060
N62         N  0.21100577  0.58039130  0.84885014    -0.06040
N63         N  0.20538984  0.53455825  0.84342636    -0.62130
Mn64       Mn  0.23886722  0.61272743  0.90616512     1.18440
C65         C  0.19472733  0.52935080  0.80274458     0.96160
C66         C  0.11575636  0.69661160  0.89949898     0.96830
N67         N  0.40069933  0.63188101  0.85230687    -0.08330
N68         N  0.43272268  0.60065391  0.84246171    -0.64640
N69         N  0.37942742  0.74335515  0.87971769    -0.07130
N70         N  0.41294816  0.77581716  0.88151244    -0.65310
N71         N  0.38506995  0.71499658  0.91152053    -0.07840
N72         N  0.42142996  0.72817780  0.93547398    -0.64900
N73         N  0.39283090  0.66122256  0.82153506    -0.06730
N74         N  0.41833515  0.65085891  0.79040174    -0.65590
Mn75       Mn  0.36081739  0.64188631  0.90916258     1.10660
C76         C  0.44320237  0.61330114  0.80357351     0.97380
C77         C  0.43867348  0.76616176  0.91677905     0.97460
N78         N  0.24238912  0.75876457  0.81986299    -0.07850
N79         N  0.21700673  0.79790695  0.82028713    -0.63220
N80         N  0.30885901  0.68900098  0.76452317    -0.07160
N81         N  0.32725337  0.68764123  0.72810944    -0.59950
N82         N  0.26515685  0.67518135  0.76120252    -0.08470
N83         N  0.25269369  0.66471712  0.72221160    -0.62790
N84         N  0.28704023  0.77001701  0.82371085    -0.07460
N85         N  0.29290743  0.81619851  0.82605325    -0.59970
Mn86       Mn  0.22070276  0.68183532  0.81388366     1.20190
Mn87       Mn  0.34200343  0.71699676  0.82235371     1.10090
Cl88       Cl  0.29029701  0.66389393  0.86318263    -0.87940
C89         C  0.24923583  0.83341227  0.82419197     0.94390
C90         C  0.29197213  0.67228302  0.70197392     0.94190
N91         N  0.85831567  0.76075984  0.94456135    -0.08100
N92         N  0.88688175  0.74296446  0.91752486    -0.60220
N93         N  0.79756504  0.74450713  0.02914405    -0.07780
N94         N  0.79399382  0.70768811  0.05357925    -0.62340
N95         N  0.77298081  0.73727412  0.99409901    -0.07370
N96         N  0.75206637  0.69575974  0.99413385    -0.60190
N97         N  0.88119901  0.76733691  0.98061550    -0.07050
N98         N  0.92467347  0.75398519  0.97932314    -0.62700
C99         C  0.92806450  0.73877445  0.94015920     0.94080
C100        C  0.76517619  0.67775448  0.03136855     0.93860
N101        N  0.81294679  0.88118760  0.08522249    -0.08280
N102        N  0.80313373  0.89634302  0.12259416    -0.60790
N103        N  0.90692378  0.85353137  0.03819935    -0.06400
N104        N  0.95017247  0.84830240  0.05341918    -0.62050
N105        N  0.89733061  0.89862494  0.03374030    -0.08310
N106        N  0.93391595  0.92483660  0.04515632    -0.61060
N107        N  0.82112144  0.83539193  0.08580532    -0.06040
N108        N  0.81724716  0.81855758  0.12316324    -0.62130
Mn109      Mn  0.85156553  0.79954422  0.03398341     1.18440
C110        C  0.80566610  0.85667845  0.14582598     0.96160
C111        C  0.96690702  0.89309161  0.05666728     0.96830
N112        N  0.70779530  0.80322617  0.93768391    -0.08330
N113        N  0.66886900  0.77789066  0.93646145    -0.64640
N114        N  0.77907745  0.86708507  0.88331410    -0.07130
N115        N  0.78164354  0.88439179  0.84589275    -0.65310
N116        N  0.79102900  0.82231462  0.88384223    -0.07840
N117        N  0.80157350  0.80800872  0.84652144    -0.64900
N118        N  0.69772654  0.84868875  0.93712961    -0.06730
N119        N  0.65236176  0.85525743  0.93476845    -0.65590
Mn120      Mn  0.78225664  0.77956772  0.93901710     1.10660
C121        C  0.63469517  0.81097415  0.93455462     0.97380
C122        C  0.79589251  0.84728794  0.82325946     0.97460
N123        N  0.83699248  0.96106554  0.97025622    -0.07850
N124        N  0.87116585  0.98971132  0.96033220    -0.63220
N125        N  0.72620421  0.94073803  0.99072732    -0.07160
N126        N  0.69176528  0.97166513  0.99095733    -0.59950
N127        N  0.75348216  0.94590170  0.02447232    -0.08470
N128        N  0.73764045  0.97907639  0.04851524    -0.62790
N129        N  0.80859086  0.95306238  0.93760267    -0.07460
N130        N  0.82252363  0.97524346  0.90512470    -0.59970
Mn131      Mn  0.82545949  0.92276555  0.02881858     1.20190
Mn132      Mn  0.75185299  0.90287507  0.93692265     1.10090
Cl133      Cl  0.80254670  0.85106476  0.98481607    -0.87940
C134        C  0.86134337  0.99808234  0.91946630     0.94390
C135        C  0.69919205  0.99497471  0.02761633     0.94190
N136        N  0.86077214  0.75643441  0.44413581    -0.08100
N137        N  0.89078841  0.74118310  0.41719406    -0.60220
N138        N  0.79478295  0.73928177  0.52633211    -0.07780
N139        N  0.78680545  0.70283793  0.55018587    -0.62340
N140        N  0.77215018  0.73366479  0.49013798    -0.07370
N141        N  0.74830050  0.69361178  0.48869549    -0.60190
N142        N  0.88198518  0.75997581  0.48121343    -0.07050
N143        N  0.92563341  0.74710486  0.48064647    -0.62700
C144        C  0.93102048  0.73521045  0.44095020     0.94080
C145        C  0.75741124  0.67485588  0.52639167     0.93860
N146        N  0.81666536  0.87489205  0.58588776    -0.08280
N147        N  0.80661583  0.89043207  0.62301944    -0.60790
N148        N  0.90984450  0.84236005  0.54160289    -0.06400
N149        N  0.95080773  0.83468984  0.56087725    -0.62050
N150        N  0.90336059  0.88798905  0.53676963    -0.08310
N151        N  0.93990291  0.91187217  0.55200152    -0.61060
N152        N  0.82154775  0.82854378  0.58611813    -0.06040
N153        N  0.81550476  0.81180715  0.62323376    -0.62130
Mn154      Mn  0.85164845  0.79169757  0.53442753     1.18440
C155        C  0.80576055  0.85061299  0.64589463     0.96160
C156        C  0.96968432  0.87839113  0.56625648     0.96830
N157        N  0.71214058  0.80499926  0.43562751    -0.08330
N158        N  0.67240954  0.78102398  0.43334555    -0.64640
N159        N  0.78649099  0.86793602  0.38433309    -0.07130
N160        N  0.78940465  0.88641201  0.34738563    -0.65310
N161        N  0.79711104  0.82281038  0.38363717    -0.07840
N162        N  0.80689729  0.80945731  0.34584914    -0.64900
N163        N  0.70370214  0.85084992  0.43664926    -0.06730
N164        N  0.65858696  0.85903431  0.43401391    -0.65590
Mn165      Mn  0.78541368  0.77817580  0.43717911     1.10660
C166        C  0.63953116  0.81532825  0.43225052     0.97380
C167        C  0.80234497  0.84968896  0.32367110     0.97460
N168        N  0.84833919  0.95587855  0.47307082    -0.07850
N169        N  0.88419393  0.98253666  0.46330216    -0.63220
N170        N  0.73553046  0.94105197  0.49327559    -0.07160
N171        N  0.70224396  0.97321575  0.49418573    -0.59950
N172        N  0.76349911  0.94530541  0.52667080    -0.08470
N173        N  0.74961968  0.97942358  0.55094990    -0.62790
N174        N  0.81926971  0.95034979  0.44049786    -0.07460
N175        N  0.83440434  0.97203465  0.40825466    -0.59970
Mn176      Mn  0.83347536  0.91692184  0.53085956     1.20190
Mn177      Mn  0.76004554  0.90304048  0.43857685     1.10090
Cl178      Cl  0.80734517  0.84733496  0.48541958    -0.87940
C179        C  0.87465894  0.99211945  0.42253835     0.94390
C180        C  0.71129210  0.99648854  0.53072248     0.94190
N181        N  0.56753317  0.46337837  0.13304029    -0.08100
N182        N  0.53298176  0.49089482  0.14413492    -0.60220
N183        N  0.67846597  0.44179399  0.11124426    -0.07780
N184        N  0.71556465  0.46952081  0.11005932    -0.62340
N185        N  0.65102896  0.44743239  0.07781427    -0.07370
N186        N  0.66931940  0.47783978  0.05292816    -0.60190
N187        N  0.59631161  0.45585485  0.16533122    -0.07050
N188        N  0.58223212  0.47732558  0.19858369    -0.62700
C189        C  0.54293528  0.49921848  0.18524521     0.94080
C190        C  0.70965466  0.49117546  0.07304491     0.93860
N191        N  0.69476111  0.30543931  0.16322807    -0.08280
N192        N  0.73297355  0.27939899  0.16462950    -0.60790
N193        N  0.62452980  0.37048074  0.21823390    -0.06400
N194        N  0.62044182  0.38870337  0.25552863    -0.62050
N195        N  0.61078858  0.32609032  0.21677978    -0.08310
N196        N  0.59697492  0.31303460  0.25318017    -0.61060
N197        N  0.70606931  0.35070293  0.16415534    -0.06040
N198        N  0.75170330  0.35642066  0.16698747    -0.62130
Mn199      Mn  0.65253259  0.40535256  0.16498712     1.18440
C200        C  0.76819973  0.31175006  0.16703303     0.96160
C201        C  0.60296710  0.35264613  0.27693066     0.96830
N202        N  0.59002408  0.38210682  0.01614254    -0.08330
N203        N  0.60084407  0.39624425  0.97898049    -0.64640
N204        N  0.49549864  0.35544735  0.06372689    -0.07130
N205        N  0.45254307  0.34984298  0.04769962    -0.65310
N206        N  0.50573818  0.40068218  0.06804236    -0.07840
N207        N  0.46977059  0.42651103  0.05548395    -0.64900
N208        N  0.58017085  0.33651620  0.01497552    -0.06730
N209        N  0.58340448  0.31894151  0.97740243    -0.65590
Mn210      Mn  0.57831712  0.42472796  0.07335129     1.10660
C211        C  0.59673834  0.35623481  0.95526172     0.97380
C212        C  0.43644665  0.39447223  0.04370816     0.97460
N213        N  0.54359772  0.26354128  0.15560639    -0.07850
N214        N  0.51527718  0.24572033  0.18258410    -0.63220
N215        N  0.60389905  0.24696770  0.07048641    -0.07160
N216        N  0.61031188  0.21133187  0.04451778    -0.59950
N217        N  0.62902440  0.24112196  0.10520976    -0.08470
N218        N  0.65355254  0.20222791  0.10342059    -0.62790
N219        N  0.52039943  0.26975269  0.11986141    -0.07460
N220        N  0.47686855  0.25616110  0.12132517    -0.59970
Mn221      Mn  0.61969899  0.28271715  0.16120473     1.19230
Mn222      Mn  0.54998344  0.30144255  0.06675643     1.10090
Cl223      Cl  0.60032806  0.35349461  0.11642648    -0.87940
C224        C  0.47381918  0.24115060  0.16028746     0.94390
C225        C  0.64188969  0.18403584  0.06552868     0.94190
N226        N  0.58963116  0.44983352  0.67027639    -0.08100
N227        N  0.59063094  0.49191384  0.68875995    -0.60220
N228        N  0.57605508  0.34913067  0.71516834    -0.07780
N229        N  0.56327798  0.33844395  0.75253118    -0.62340
N230        N  0.61986722  0.36335418  0.71712896    -0.07370
N231        N  0.63724198  0.36354377  0.75573288    -0.60190
N232        N  0.54634753  0.43488257  0.66438157    -0.07050
N233        N  0.51731604  0.46663286  0.67775506    -0.62700
C234        C  0.54512644  0.50224206  0.69223488     0.94080
C235        C  0.60189273  0.34725776  0.77741348     0.93860
N236        N  0.51725059  0.26017194  0.61947271    -0.08280
N237        N  0.48824075  0.22346784  0.61890664    -0.60790
N238        N  0.48547263  0.37060799  0.60015692    -0.06400
N239        N  0.45069136  0.40008706  0.59108301    -0.62050
N240        N  0.49345259  0.34457926  0.56740092    -0.08310
N241        N  0.46500574  0.35511485  0.53588473    -0.61060
N242        N  0.51367929  0.28485049  0.65387299    -0.06040
N243        N  0.48411326  0.26469397  0.67767218    -0.62130
Mn244      Mn  0.52980060  0.35999277  0.65853884     1.18440
C245        C  0.46851970  0.22633599  0.65599782     0.96160
C246        C  0.43831258  0.38952935  0.55072941     0.96830
N247        N  0.70781779  0.35147670  0.65967463    -0.08330
N248        N  0.74687179  0.34885799  0.68339722    -0.64640
N249        N  0.67929802  0.41636091  0.57634415    -0.07130
N250        N  0.69565131  0.44748536  0.55033833    -0.65310
N251        N  0.67292356  0.43725297  0.61218124    -0.07840
N252        N  0.68474595  0.48216306  0.61158212    -0.64900
N253        N  0.71283415  0.32901623  0.62434732    -0.06730
N254        N  0.75453344  0.31044465  0.62348881    -0.65590
Mn255      Mn  0.64834717  0.40046034  0.66535611     1.10660
C256        C  0.77553243  0.32268086  0.66033799     0.97380
C257        C  0.69879788  0.48837620  0.57307908     0.97460
N258        N  0.57718212  0.32903312  0.51289836    -0.07850
N259        N  0.55862712  0.33079478  0.47469497    -0.63220
N260        N  0.65011878  0.26082348  0.56655266    -0.07160
N261        N  0.67868837  0.22461266  0.56329802    -0.59950
N262        N  0.60674692  0.24545716  0.56581055    -0.08470
N263        N  0.60470344  0.19912792  0.56130652    -0.62790
N264        N  0.61945265  0.34706969  0.51481745    -0.07460
N265        N  0.63049714  0.36165623  0.47806978    -0.59970
Mn266      Mn  0.54844926  0.29379445  0.56611001     1.20190
Mn267      Mn  0.66633110  0.33829919  0.56967880     1.10090
Cl268      Cl  0.59837820  0.34794782  0.61509397    -0.87940
C269        C  0.59209295  0.35168861  0.45344078     0.94390
C270        C  0.64969488  0.18652012  0.56004185     0.94190
N271        N  0.19938658  0.10606297  0.29244532    -0.08100
N272        N  0.21145003  0.07629484  0.32273764    -0.60220
N273        N  0.22083108  0.16599933  0.20533260    -0.07780
N274        N  0.25768087  0.16860138  0.18281233    -0.62340
N275        N  0.22807933  0.19094359  0.23971534    -0.07370
N276        N  0.26966062  0.21109817  0.24110032    -0.60190
N277        N  0.19317315  0.08216471  0.25726353    -0.07050
N278        N  0.20012462  0.03671939  0.26264841    -0.62700
C279        C  0.21178684  0.03317568  0.30319936     0.94080
C280        C  0.28771257  0.19719388  0.20534064     0.93860
N281        N  0.08527431  0.15041785  0.14193642    -0.08280
N282        N  0.07077177  0.16000656  0.10341734    -0.60790
N283        N  0.11177543  0.05628602  0.19522428    -0.06400
N284        N  0.11719028  0.01296544  0.18044189    -0.62050
N285        N  0.06737701  0.06584460  0.19724595    -0.08310
N286        N  0.04192967  0.02910687  0.18427152    -0.61060
N287        N  0.13047555  0.14221963  0.14386715    -0.06040
N288        N  0.14729130  0.14557969  0.10694097    -0.62130
Mn289      Mn  0.16490853  0.11219758  0.19978881     1.18440
C290        C  0.10991204  0.15709812  0.08196640     0.96160
C291        C  0.07329861  0.99593325  0.17469996     0.96830
N292        N  0.16174526  0.26094538  0.28562473    -0.08330
N293        N  0.18818372  0.29940791  0.28453204    -0.64640
N294        N  0.09573442  0.19374010  0.34186209    -0.07130
N295        N  0.07706958  0.19205264  0.37816392    -0.65310
N296        N  0.13912709  0.17950055  0.34493651    -0.07840
N297        N  0.15113972  0.16846852  0.38364180    -0.64900
N298        N  0.11735981  0.27268733  0.28083188    -0.06730
N299        N  0.11295855  0.31893743  0.27661267    -0.65590
Mn300      Mn  0.18334421  0.18453777  0.29200094     1.10660
C301        C  0.15733565  0.33534920  0.27875967     0.97380
C302        C  0.11190420  0.17617408  0.40400149     0.97460
N303        N  0.00630847  0.12893623  0.25564493    -0.07850
N304        N  0.98176527  0.09255055  0.26825981    -0.63220
N305        N  0.02287861  0.24127915  0.22637199    -0.07160
N306        N  0.98926068  0.27330758  0.22440326    -0.59950
N307        N  0.01683853  0.21120130  0.19508813    -0.08470
N308        N  0.97994194  0.22265823  0.17142203    -0.62790
N309        N  0.01289099  0.16006893  0.28608794    -0.07460
N310        N  0.99365950  0.14567362  0.31965817    -0.59970
Mn311      Mn  0.04321062  0.13883043  0.19722032     1.20190
Mn312      Mn  0.06192815  0.21855810  0.28369598     1.10090
Cl313      Cl  0.11363170  0.16436346  0.24273757    -0.87940
C314        C  0.97413848  0.10378131  0.30832706     0.94390
C315        C  0.96296426  0.26154172  0.18960902     0.94190
N316        N  0.19591806  0.10196600  0.78799504    -0.08100
N317        N  0.21048994  0.07229116  0.81750129    -0.60220
N318        N  0.21356609  0.16057397  0.69951632    -0.07780
N319        N  0.24903954  0.16058519  0.67526241    -0.62340
N320        N  0.22379041  0.18547584  0.73347599    -0.07370
N321        N  0.26637977  0.20285729  0.73285756    -0.60190
N322        N  0.18703830  0.07817081  0.75311634    -0.07050
N323        N  0.19507777  0.03280841  0.75781288    -0.62700
C324        C  0.20950373  0.02931822  0.79779188     0.94080
C325        C  0.28162102  0.18743827  0.69629848     0.93860
N326        N  0.07680571  0.15165031  0.64139805    -0.08280
N327        N  0.06237676  0.16348159  0.60331015    -0.60790
N328        N  0.10150049  0.05581681  0.69530093    -0.06400
N329        N  0.10585924  0.01074335  0.68527805    -0.62050
N330        N  0.05747091  0.06706012  0.69703609    -0.08310
N331        N  0.03089082  0.02961702  0.68847853    -0.61060
N332        N  0.12136700  0.14081096  0.64247241    -0.06040
N333        N  0.13796725  0.14484868  0.60560660    -0.62130
Mn334      Mn  0.15643344  0.10912325  0.69703531     1.18440
C335        C  0.10113235  0.15927431  0.58139433     0.96160
C336        C  0.06160246  0.99455919  0.68187061     0.96830
N337        N  0.16254378  0.25753577  0.78406762    -0.08330
N338        N  0.18916732  0.29570211  0.78122651    -0.64640
N339        N  0.09764798  0.18986627  0.84241360    -0.07130
N340        N  0.08059997  0.18755107  0.87933169    -0.65310
N341        N  0.14104998  0.17562388  0.84377634    -0.07840
N342        N  0.15462658  0.16371472  0.88198944    -0.64900
N343        N  0.11828058  0.26986542  0.78206960    -0.06730
N344        N  0.11398887  0.31602706  0.77774331    -0.65590
Mn345      Mn  0.18227926  0.18053327  0.78850611     1.10660
C346        C  0.15830887  0.33193489  0.77711807     0.97380
C347        C  0.11633849  0.17109099  0.90381503     0.97460
N348        N  0.00073564  0.13224834  0.75676741    -0.07850
N349        N  0.97270062  0.09807717  0.76820157    -0.63220
N350        N  0.02306593  0.24356652  0.73089396    -0.07160
N351        N  0.99308381  0.27898306  0.73023799    -0.59950
N352        N  0.01479449  0.21577385  0.69833124    -0.08470
N353        N  0.98003511  0.23240910  0.67470238    -0.62790
N354        N  0.01058626  0.16127928  0.78824449    -0.07460
N355        N  0.99002209  0.14770375  0.82137417    -0.59970
Mn356      Mn  0.03630320  0.14147526  0.69773524     1.20190
Mn357      Mn  0.06216191  0.21731579  0.78616232     1.10090
Cl358      Cl  0.10938833  0.16250618  0.74213047    -0.87940
C359        C  0.96636380  0.10847810  0.80863069     0.94390
C360        C  0.96691015  0.27198655  0.69459714     0.94190
C361        C  0.06621501  0.18002174  0.46795073    -0.15320
C362        C  0.10844441  0.17136849  0.44925417     0.06830
C363        C  0.14778439  0.15923905  0.47433748    -0.15320
C364        C  0.14516336  0.15599028  0.51715550    -0.15320
C365        C  0.10306748  0.16459748  0.53600151     0.06830
C366        C  0.06354031  0.17661559  0.51096915    -0.15320
H367        H  0.03527857  0.18944509  0.44934818     0.10810
H368        H  0.18079792  0.15247977  0.46090354     0.10810
H369        H  0.17624987  0.14650120  0.53550475     0.10810
H370        H  0.03060159  0.18321887  0.52458541     0.10810
C371        C  0.07103303  0.17141957  0.01176929    -0.15320
C372        C  0.11128508  0.16073614  0.03635233     0.06830
C373        C  0.15302593  0.15227958  0.01686311    -0.15320
C374        C  0.15456540  0.15478408  0.97378423    -0.15320
C375        C  0.11446230  0.16600287  0.94924579     0.06830
C376        C  0.07261213  0.17409062  0.96867983    -0.15320
H377        H  0.03831559  0.17782437  0.02583479     0.10810
H378        H  0.18459085  0.14367621  0.03491188     0.10810
H379        H  0.18730167  0.14843252  0.95973871     0.10810
H380        H  0.04107217  0.18273433  0.95059213     0.10810
C381        C  0.89923615  0.28565008  0.64584263    -0.15320
C382        C  0.92095432  0.29356567  0.68514409     0.06830
C383        C  0.89534341  0.31463957  0.71625990    -0.15320
C384        C  0.84795336  0.32519503  0.70851358    -0.15320
C385        C  0.82580843  0.31463436  0.66965762     0.06830
C386        C  0.85235424  0.29590426  0.63822188    -0.15320
H387        H  0.91808969  0.26951866  0.62129746     0.10810
H388        H  0.91119959  0.32063667  0.74701525     0.10810
H389        H  0.82839908  0.34012162  0.73313078     0.10810
H390        H  0.83670100  0.28810221  0.60768132     0.10810
C391        C  0.39043050  0.19064136  0.63493150    -0.15320
C392        C  0.42415767  0.20404187  0.66607179     0.06830
C393        C  0.41128998  0.20724194  0.70720619    -0.15320
C394        C  0.36508670  0.20126251  0.71672204    -0.15320
C395        C  0.33068037  0.19102559  0.68544790     0.06830
C396        C  0.34389483  0.18384349  0.64465066    -0.15320
H397        H  0.39929400  0.18864757  0.60286918     0.10810
H398        H  0.43656570  0.21753125  0.73178907     0.10810
H399        H  0.35616389  0.20577943  0.74860021     0.10810
H400        H  0.31799245  0.17523377  0.62010650     0.10810
C401        C  0.57362055  0.31914847  0.88689612    -0.15320
C402        C  0.59942534  0.35393699  0.90984598     0.06830
C403        C  0.62691109  0.38590325  0.88898821    -0.15320
C404        C  0.62891271  0.38267490  0.84588513    -0.15320
C405        C  0.60237087  0.34838384  0.82298657     0.06830
C406        C  0.57451550  0.31686798  0.84381865    -0.15320
H407        H  0.55186347  0.29421993  0.90222241     0.10810
H408        H  0.64704728  0.41296862  0.90599536     0.10810
H409        H  0.65025326  0.40779322  0.83032624     0.10810
H410        H  0.55363240  0.29036641  0.82678796     0.10810
C411        C  0.62136078  0.38864994  0.34653358    -0.15320
C412        C  0.59656940  0.35491951  0.32168514     0.06830
C413        C  0.56761698  0.32227482  0.34022477    -0.15320
C414        C  0.56419588  0.32284348  0.38314394    -0.15320
C415        C  0.59064383  0.35523195  0.40809629     0.06830
C416        C  0.61891768  0.38838345  0.38946047    -0.15320
H417        H  0.64404945  0.41412541  0.33292256     0.10810
H418        H  0.54811457  0.29606238  0.32160965     0.10810
H419        H  0.54244583  0.29666807  0.39694349     0.10810
H420        H  0.63964173  0.41359258  0.40815369     0.10810
C421        C  0.85075776  0.33228529  0.19036502    -0.15320
C422        C  0.81847920  0.30021462  0.17103504     0.06830
C423        C  0.83463545  0.25700061  0.15592457    -0.15320
C424        C  0.88197970  0.24586850  0.16027150    -0.15320
C425        C  0.91416514  0.27709706  0.18089285     0.06830
C426        C  0.89807324  0.32052341  0.19583567    -0.15320
H427        H  0.83916571  0.36591773  0.20233891     0.10810
H428        H  0.81064939  0.23181009  0.14070823     0.10810
H429        H  0.89308162  0.21185986  0.14870228     0.10810
H430        H  0.92193276  0.34507878  0.21202673     0.10810
C431        C  0.41520837  0.23478048  0.21481888    -0.15320
C432        C  0.42907653  0.22423642  0.17492999     0.06830
C433        C  0.39686479  0.20300801  0.14596959    -0.15320
C434        C  0.35125569  0.19374165  0.15607475    -0.15320
C435        C  0.33654144  0.20609007  0.19527312     0.06830
C436        C  0.36909273  0.22605053  0.22483454    -0.15320
H437        H  0.43920483  0.25172596  0.23742429     0.10810
H438        H  0.40671555  0.19460772  0.11489337     0.10810
H439        H  0.32721673  0.17795154  0.13284166     0.10810
H440        H  0.35877102  0.23542494  0.25553116     0.10810
C441        C  0.04578573  0.91129771  0.59199628    -0.15320
C442        C  0.00314868  0.89053771  0.60031554     0.06830
C443        C  0.98569345  0.89600893  0.63972488    -0.15320
C444        C  0.00754854  0.92689925  0.66870513    -0.15320
C445        C  0.04787526  0.95121563  0.65895280     0.06830
C446        C  0.06863959  0.94085759  0.62162674    -0.15320
H447        H  0.05899273  0.90835881  0.56138370     0.10810
H448        H  0.95213375  0.88104073  0.64617491     0.10810
H449        H  0.99090796  0.93483948  0.69717974     0.10810
H450        H  0.09948759  0.95987731  0.61335799     0.10810
C451        C  0.90012625  0.00772683  0.35194284    -0.15320
C452        C  0.90439254  0.01806306  0.39471631     0.06830
C453        C  0.93363169  0.05518390  0.40907428    -0.15320
C454        C  0.95662678  0.08277984  0.38081540    -0.15320
C455        C  0.95133661  0.07309535  0.33789413     0.06830
C456        C  0.92365746  0.03470296  0.32384902    -0.15320
H457        H  0.87790794  0.97901922  0.34005199     0.10810
H458        H  0.93725707  0.06395485  0.44177812     0.10810
H459        H  0.97821349  0.11202907  0.39255402     0.10810
H460        H  0.91917007  0.02633890  0.29111699     0.10810
C461        C  0.72662831  0.59371263  0.50711512    -0.15320
C462        C  0.74295819  0.62670250  0.53767656     0.06830
C463        C  0.74666667  0.61289207  0.57909089    -0.15320
C464        C  0.73311932  0.56750156  0.58997876    -0.15320
C465        C  0.71630825  0.53458052  0.55965593     0.06830
C466        C  0.71380101  0.54774870  0.51799490    -0.15320
H467        H  0.72395021  0.60338285  0.47480931     0.10810
H468        H  0.75939700  0.63741409  0.60317174     0.10810
H469        H  0.73561812  0.55820667  0.62238835     0.10810
H470        H  0.70075935  0.52310322  0.49414674     0.10810
C471        C  0.64900884  0.05817753  0.52550106    -0.15320
C472        C  0.69320670  0.04372243  0.54053951     0.06830
C473        C  0.72255576  0.07630784  0.56275020    -0.15320
C474        C  0.70859033  0.12290978  0.56876241    -0.15320
C475        C  0.66450830  0.13740312  0.55375506     0.06830
C476        C  0.63444704  0.10459810  0.53266330    -0.15320
H477        H  0.62601086  0.03377087  0.50813067     0.10810
H478        H  0.75710712  0.06627087  0.57433212     0.10810
H479        H  0.73212718  0.14753241  0.58529066     0.10810
H480        H  0.60018351  0.11521474  0.52078022     0.10810
C481        C  0.80743281  0.80665576  0.75571865    -0.15320
C482        C  0.79925567  0.84838455  0.77800592     0.06830
C483        C  0.79239908  0.89092676  0.75651184    -0.15320
C484        C  0.79379696  0.89170034  0.71342964    -0.15320
C485        C  0.80190508  0.84990768  0.69114567     0.06830
C486        C  0.80860313  0.80738283  0.71268487    -0.15320
H487        H  0.81259991  0.77336791  0.77148534     0.10810
H488        H  0.78591119  0.92363348  0.77298098     0.10810
H489        H  0.78874619  0.92496835  0.69761590     0.10810
H490        H  0.81517047  0.77464281  0.69632115     0.10810
C491        C  0.79698995  0.89689100  0.21453294    -0.15320
C492        C  0.80343645  0.85544252  0.19126231     0.06830
C493        C  0.81032345  0.81235936  0.21193923    -0.15320
C494        C  0.81090823  0.81067490  0.25500743    -0.15320
C495        C  0.80439192  0.85200022  0.27831434     0.06830
C496        C  0.79744205  0.89517315  0.25774277    -0.15320
H497        H  0.79192432  0.93057520  0.19940740     0.10810
H498        H  0.81557575  0.77981727  0.19483960     0.10810
H499        H  0.81605423  0.77692298  0.27000762     0.10810
H500        H  0.79218923  0.92760472  0.27502845     0.10810
C501        C  0.03502491  0.94513823  0.07216370    -0.15320
C502        C  0.00717002  0.90734297  0.08376921     0.06830
C503        C  0.00954999  0.89264259  0.12513732    -0.15320
C504        C  0.03540627  0.91899672  0.15535828    -0.15320
C505        C  0.06035663  0.95900764  0.14405603     0.06830
C506        C  0.06206252  0.97040979  0.10210525    -0.15320
H507        H  0.03279126  0.95753676  0.04057866     0.10810
H508        H  0.98731445  0.86425498  0.13478207     0.10810
H509        H  0.03290661  0.91050104  0.18769128     0.10810
H510        H  0.08029663  0.00196329  0.09305649     0.10810
C511        C  0.92079175  0.06067779  0.90736786    -0.15320
C512        C  0.89014959  0.02526266  0.89193386     0.06830
C513        C  0.88540111  0.01657092  0.84894446    -0.15320
C514        C  0.91058070  0.04309666  0.82174072    -0.15320
C515        C  0.94039960  0.07929484  0.83700099     0.06830
C516        C  0.94545319  0.08779182  0.88005587    -0.15320
H517        H  0.92485830  0.06806079  0.94029944     0.10810
H518        H  0.86211492  0.98914399  0.83625414     0.10810
H519        H  0.90620491  0.03576690  0.78882263     0.10810
H520        H  0.96854210  0.11540120  0.89268158     0.10810
C521        C  0.73764864  0.59702660  0.01137536    -0.15320
C522        C  0.75638595  0.62819297  0.04211717     0.06830
C523        C  0.76686267  0.61125530  0.08216676    -0.15320
C524        C  0.75555403  0.56456343  0.09191146    -0.15320
C525        C  0.73388473  0.53454959  0.06158796     0.06830
C526        C  0.72675878  0.55065333  0.02096528    -0.15320
H527        H  0.73024690  0.60874840  0.97997842     0.10810
H528        H  0.78199671  0.63452225  0.10619674     0.10810
H529        H  0.76097386  0.55300758  0.12357645     0.10810
H530        H  0.71025317  0.52811447  0.99703323     0.10810
C531        C  0.70058586  0.06662038  0.07166955    -0.15320
C532        C  0.67999312  0.04165972  0.03756375     0.06830
C533        C  0.64656267  0.06426627  0.01142066    -0.15320
C534        C  0.63429344  0.11140608  0.01949215    -0.15320
C535        C  0.65583841  0.13613664  0.05343575     0.06830
C536        C  0.68915860  0.11326868  0.07913628    -0.15320
H537        H  0.72674563  0.05058232  0.09229576     0.10810
H538        H  0.63062092  0.04588611  0.98464596     0.10810
H539        H  0.60804332  0.12830198  0.99952898     0.10810
H540        H  0.70636325  0.13129947  0.10553938     0.10810
C541        C  0.38193824  0.42860440  0.94190727    -0.15320
C542        C  0.34633291  0.45831476  0.95421136     0.06830
C543        C  0.33436006  0.45879030  0.99570304    -0.15320
C544        C  0.36128795  0.43390973  0.02537800    -0.15320
C545        C  0.39911360  0.40706117  0.01339350     0.06830
C546        C  0.40775281  0.40249136  0.97130266    -0.15320
H547        H  0.39228475  0.42872961  0.91023314     0.10810
H548        H  0.30774308  0.48256041  0.00587800     0.10810
H549        H  0.35492070  0.43856380  0.05784495     0.10810
H550        H  0.43759901  0.38273082  0.96174943     0.10810
C551        C  0.46635021  0.59347776  0.73296297    -0.15320
C552        C  0.47389918  0.58793789  0.77597650     0.06830
C553        C  0.50988606  0.55848289  0.79107828    -0.15320
C554        C  0.53694093  0.53383430  0.76330537    -0.15320
C555        C  0.52759612  0.53791605  0.72038345     0.06830
C556        C  0.49248009  0.56814016  0.70546710    -0.15320
H557        H  0.43869847  0.61584696  0.72038458     0.10810
H558        H  0.51642729  0.55389118  0.82404648     0.10810
H559        H  0.56301842  0.50927592  0.77523163     0.10810
H560        H  0.48390689  0.57049406  0.67252331     0.10810
C561        C  0.51898121  0.75041190  0.94616865    -0.15320
C562        C  0.48782235  0.78099693  0.92467446     0.06830
C563        C  0.50532693  0.82219371  0.90735630    -0.15320
C564        C  0.55312512  0.83237916  0.91133269    -0.15320
C565        C  0.58425618  0.80077519  0.93150247     0.06830
C566        C  0.56674954  0.75984418  0.94900205    -0.15320
H567        H  0.50672126  0.71802696  0.95952620     0.10810
H568        H  0.48222197  0.84605908  0.89035675     0.10810
H569        H  0.56595164  0.86431058  0.89759985     0.10810
H570        H  0.58997497  0.73524517  0.96498704     0.10810
C571        C  0.04912647  0.68928425  0.94531820    -0.15320
C572        C  0.06653086  0.70522442  0.90838629     0.06830
C573        C  0.03613506  0.72831131  0.87954895    -0.15320
C574        C  0.98952589  0.73644890  0.88811971    -0.15320
C575        C  0.97291025  0.72200915  0.92582846     0.06830
C576        C  0.00294822  0.69785353  0.95400752    -0.15320
H577        H  0.07142910  0.67105016  0.96790206     0.10810
H578        H  0.04854902  0.74068523  0.85060007     0.10810
H579        H  0.96730690  0.75599121  0.86637467     0.10810
H580        H  0.99094080  0.68671704  0.98352740     0.10810
C581        C  0.22421531  0.44792200  0.79327271    -0.15320
C582        C  0.18924582  0.48146637  0.78401793     0.06830
C583        C  0.14563820  0.46550051  0.76789606    -0.15320
C584        C  0.13633711  0.41672584  0.76370081    -0.15320
C585        C  0.17059735  0.38309011  0.77524552     0.06830
C586        C  0.21520561  0.39930128  0.78848740    -0.15320
H587        H  0.25779074  0.45933958  0.80680374     0.10810
H588        H  0.11772891  0.49044634  0.76175302     0.10810
H589        H  0.10161075  0.40530720  0.75324892     0.10810
H590        H  0.24224486  0.37443919  0.79773373     0.10810
C591        C  0.19871973  0.90486569  0.83626786    -0.15320
C592        C  0.23980104  0.88493976  0.82242238     0.06830
C593        C  0.27317339  0.91493069  0.80616103    -0.15320
C594        C  0.26490145  0.96332382  0.80201805    -0.15320
C595        C  0.22362255  0.98326127  0.81498157     0.06830
C596        C  0.19073992  0.95379931  0.83262356    -0.15320
H597        H  0.17254305  0.88256722  0.84905991     0.10810
H598        H  0.30499899  0.90058624  0.79485965     0.10810
H599        H  0.28972927  0.98488236  0.78656162     0.10810
H600        H  0.15775093  0.96813960  0.84119387     0.10810
C601        C  0.25583562  0.66424826  0.58803523    -0.15320
C602        C  0.29838859  0.67132236  0.56957815     0.06830
C603        C  0.33911216  0.67775303  0.59504976    -0.15320
C604        C  0.33718950  0.67731486  0.63819020    -0.15320
C605        C  0.29453364  0.67026583  0.65652441     0.06830
C606        C  0.25396068  0.66358133  0.63101288    -0.15320
H607        H  0.22386031  0.65897431  0.56924708     0.10810
H608        H  0.37242060  0.68286514  0.58166661     0.10810
H609        H  0.36903023  0.68258606  0.65718030     0.10810
H610        H  0.22058277  0.65835704  0.64425513     0.10810
C611        C  0.25206438  0.65850740  0.13187482    -0.15320
C612        C  0.29285443  0.66973767  0.15589375     0.06830
C613        C  0.33399102  0.67932672  0.13602270    -0.15320
C614        C  0.33425966  0.67772546  0.09284893    -0.15320
C615        C  0.29339171  0.66661604  0.06884132     0.06830
C616        C  0.25229166  0.65707382  0.08875947    -0.15320
H617        H  0.21981699  0.65115598  0.14638123     0.10810
H618        H  0.36591432  0.68817898  0.15381614     0.10810
H619        H  0.36648846  0.68499799  0.07828429     0.10810
H620        H  0.22033850  0.64816390  0.07105169     0.10810
C621        C  0.37818058  0.45274969  0.53770764    -0.15320
C622        C  0.40471181  0.41515472  0.52330140     0.06830
C623        C  0.40239413  0.40402377  0.48063658    -0.15320
C624        C  0.37729449  0.43225621  0.45256355    -0.15320
C625        C  0.35296481  0.47119219  0.46671627     0.06830
C626        C  0.35220041  0.48058428  0.50943572    -0.15320
H627        H  0.37934463  0.46197112  0.57032385     0.10810
H628        H  0.42230021  0.37509074  0.46847550     0.10810
H629        H  0.37897961  0.42527976  0.41968164     0.10810
H630        H  0.33432753  0.51146331  0.52060871     0.10810
C631        C  0.47987184  0.55729980  0.19914268    -0.15320
C632        C  0.51380938  0.52547047  0.21384918     0.06830
C633        C  0.52111941  0.51946124  0.25693571    -0.15320
C634        C  0.49547659  0.54536012  0.28481998    -0.15320
C635        C  0.46263532  0.57834426  0.27013326     0.06830
C636        C  0.45480659  0.58378949  0.22703734    -0.15320
H637        H  0.47352296  0.56253851  0.16622654     0.10810
H638        H  0.54691642  0.49479625  0.26918677     0.10810
H639        H  0.50215647  0.54049323  0.31774927     0.10810
H640        H  0.42935132  0.60880081  0.21480212     0.10810
C641        C  0.51384756  0.81896921  0.39182006    -0.15320
C642        C  0.49226760  0.79009654  0.42020530     0.06830
C643        C  0.51950292  0.77131622  0.45357435    -0.15320
C644        C  0.56756932  0.77909585  0.45725986    -0.15320
C645        C  0.58906254  0.80683168  0.42830763     0.06830
C646        C  0.56186315  0.82770745  0.39617147    -0.15320
H647        H  0.49396936  0.83350437  0.36562231     0.10810
H648        H  0.50396259  0.74891833  0.47600378     0.10810
H649        H  0.58796685  0.76348968  0.48266513     0.10810
H650        H  0.57805935  0.84957325  0.37370509     0.10810
C651        C  0.05555343  0.69483459  0.44788808    -0.15320
C652        C  0.07152468  0.70872707  0.40981886     0.06830
C653        C  0.03956975  0.72801381  0.38001248    -0.15320
C654        C  0.99264092  0.73417143  0.38860721    -0.15320
C655        C  0.97725700  0.72151461  0.42728210     0.06830
C656        C  0.00908365  0.70131838  0.45653219    -0.15320
H657        H  0.07911101  0.67954761  0.47127145     0.10810
H658        H  0.05090940  0.73865391  0.35015380     0.10810
H659        H  0.96904086  0.75051809  0.36588189     0.10810
H660        H  0.99817308  0.69140575  0.48675536     0.10810
C661        C  0.22474169  0.45021771  0.29750641    -0.15320
C662        C  0.19060693  0.48459777  0.28832908     0.06830
C663        C  0.14669725  0.46967080  0.27195934    -0.15320
C664        C  0.13639234  0.42107418  0.26719356    -0.15320
C665        C  0.16995978  0.38660122  0.27836325     0.06830
C666        C  0.21476362  0.40186397  0.29213488    -0.15320
H667        H  0.25857025  0.46078217  0.31107283     0.10810
H668        H  0.11941407  0.49529444  0.26577424     0.10810
H669        H  0.10155395  0.41045237  0.25637165     0.10810
H670        H  0.24137773  0.37640481  0.30104463     0.10810
C671        C  0.19357927  0.90357020  0.31995225    -0.15320
C672        C  0.23936752  0.88822600  0.32866892     0.06830
C673        C  0.27457585  0.92263032  0.33663415    -0.15320
C674        C  0.26470500  0.97114962  0.33326581    -0.15320
C675        C  0.21947267  0.98616892  0.32185159     0.06830
C676        C  0.18388295  0.95195240  0.31618771    -0.15320
H677        H  0.16570629  0.87814034  0.31364264     0.10810
H678        H  0.31024663  0.91199420  0.34354141     0.10810
H679        H  0.29301171  0.99659713  0.33636758     0.10810
H680        H  0.14897282  0.96257765  0.30611478     0.10810
loop_ 
_geom_bond_atom_site_label_1 
_geom_bond_atom_site_label_2 
_geom_bond_distance 
_geom_bond_site_symmetry_2 
_ccdc_geom_bond_type 
N1            N2   1.326       .  A
N1            N7   1.321       .  A
N1          Mn30   2.260       .  S
N2            C9   1.361       .  A
N3            N5   1.312       .  A
N3            N4   1.319       .  A
N3          Mn19   2.190       .  S
N4           C10   1.351       .  A
N5            N6   1.320       .  A
N5          Mn30   2.183       .  S
N6           C10   1.353       .  A
N7            N8   1.320       .  A
N7          Mn19   2.200       .  S
N8            C9   1.352       .  A
C9          C672   1.491       .  S
C10         C612   1.475       .  S
N11          N17   1.317       .  A
N11          N12   1.328       .  A
N11         Mn41   2.248       .  S
N12          C20   1.363       .  A
N13          N14   1.325       .  A
N13          N15   1.315       .  A
N13         Mn19   2.207       .  S
N14          C21   1.356       .  A
N15          N16   1.316       .  A
N15         Mn41   2.179       .  S
N16          C21   1.346       .  A
N17          N18   1.314       .  A
N17         Mn19   2.168       .  S
N18          C20   1.345       .  A
Mn19        Cl43   2.546       .  S
C20         C635   1.479       .  S
C21         C642   1.481       .  S
N22          N23   1.333       .  A
N22          N28   1.319       .  A
N22         Mn30   2.270       .  S
N23          C31   1.366       .  A
N24          N26   1.314       .  A
N24          N25   1.323       .  A
N24         Mn42   2.209       .  S
N25          C32   1.356       .  A
N26          N27   1.319       .  A
N26         Mn30   2.180       .  S
N27          C32   1.348       .  A
N28          N29   1.313       .  A
N28         Mn42   2.173       .  S
N29          C31   1.342       .  A
Mn30        Cl43   2.546       .  S
C31         C662   1.482       .  S
C32         C652   1.480       .  S
N33          N34   1.324       .  A
N33          N39   1.320       .  A
N33         Mn41   2.241       .  S
N34          C44   1.358       .  A
N35          N36   1.322       .  A
N35          N37   1.313       .  A
N35         Mn42   2.193       .  S
N36          C45   1.350       .  A
N37          N38   1.316       .  A
N37         Mn41   2.169       .  S
N38          C45   1.346       .  A
N39          N40   1.316       .  A
N39         Mn42   2.185       .  S
N40          C44   1.349       .  A
Mn41        Cl43   2.532       .  S
Mn42        Cl43   2.540       .  S
C44         C602   1.479       .  S
C45         C625   1.458       .  S
N46          N47   1.321   1_556  A
N46          N52   1.319       .  A
N46         Mn75   2.227       .  S
N47          C54   1.355       .  A
N48          N50   1.313       .  A
N48          N49   1.322       .  A
N48         Mn64   2.197       .  S
N49          C55   1.352       .  A
N50          N51   1.317       .  A
N50         Mn75   2.178       .  S
N51          C55   1.349       .  A
N52          N53   1.318       .  A
N52         Mn64   2.189       .  S
N53          C54   1.352   1_556  A
C54         C615   1.476       .  S
C55         C542   1.463       .  S
N56          N62   1.319       .  A
N56          N57   1.333       .  A
N56         Mn86   2.270       .  S
N57          C65   1.366       .  A
N58          N59   1.323       .  A
N58          N60   1.315       .  A
N58         Mn64   2.212       .  S
N59          C66   1.357       .  A
N60          N61   1.319       .  A
N60         Mn86   2.187       .  S
N61          C66   1.349       .  A
N62          N63   1.312       .  A
N62         Mn64   2.167       .  S
N63          C65   1.341       .  A
Mn64        Cl88   2.545       .  S
C65         C582   1.479       .  S
C66         C572   1.482       .  S
N67          N68   1.328       .  A
N67          N73   1.315       .  A
N67         Mn75   2.239       .  S
N68          C76   1.363       .  A
N69          N71   1.316       .  A
N69          N70   1.326       .  A
N69         Mn87   2.211       .  S
N70          C77   1.356       .  A
N71          N72   1.315       .  A
N71         Mn75   2.176       .  S
N72          C77   1.345       .  A
N73          N74   1.311       .  A
N73         Mn87   2.156       .  S
N74          C76   1.343       .  A
Mn75        Cl88   2.532       .  S
C76         C552   1.473       .  S
C77         C562   1.480       .  S
N78          N79   1.329       .  A
N78          N84   1.320       .  A
N78         Mn86   2.261       .  S
N79          C89   1.362       .  A
N80          N81   1.319       .  A
N80          N82   1.313       .  A
N80         Mn87   2.188       .  S
N81          C90   1.350       .  A
N82          N83   1.322       .  A
N82         Mn86   2.195       .  S
N83          C90   1.355       .  A
N84          N85   1.315       .  A
N84         Mn87   2.186       .  S
N85          C89   1.348       .  A
Mn86        Cl88   2.546       .  S
Mn87        Cl88   2.542       .  S
C89         C592   1.484       .  S
C90         C605   1.477       .  S
N91          N92   1.330       .  A
N91          N97   1.317       .  A
N91        Mn120   2.252       .  S
N92          C99   1.364       .  A
N93          N95   1.315   1_554  A
N93          N94   1.322       .  A
N93        Mn109   2.190       .  S
N94         C100   1.352       .  A
N95          N96   1.316       .  A
N95        Mn120   2.187       .  S
N96         C100   1.349   1_556  A
N97          N98   1.311       .  A
N97        Mn109   2.161   1_556  S
N98          C99   1.342       .  A
C99         C575   1.474       .  S
C100        C522   1.471       .  S
N101        N107   1.316       .  A
N101        N102   1.324       .  A
N101       Mn131   2.229       .  S
N102        C110   1.358       .  A
N103        N104   1.322       .  A
N103        N105   1.313       .  A
N103       Mn109   2.197       .  S
N104        C111   1.352       .  A
N105        N106   1.317       .  A
N105       Mn131   2.178       .  S
N106        C111   1.350       .  A
N107        N108   1.315       .  A
N107       Mn109   2.176       .  S
N108        C110   1.349       .  A
Mn109      Cl133   2.543   1_554  S
C110        C492   1.476       .  S
C111        C502   1.464   1_655  S
N112        N113   1.324       .  A
N112        N118   1.318       .  A
N112       Mn120   2.245       .  S
N113        C121   1.359       .  A
N114        N116   1.313       .  A
N114        N115   1.318       .  A
N114       Mn132   2.182       .  S
N115        C122   1.350       .  A
N116        N117   1.321       .  A
N116       Mn120   2.195       .  S
N117        C122   1.355       .  A
N118        N119   1.317       .  A
N118       Mn132   2.178       .  S
N119        C121   1.348       .  A
Mn120      Cl133   2.536       .  S
C121        C565   1.475       .  S
C122        C482   1.474       .  S
N123        N124   1.326       .  A
N123        N129   1.315       .  A
N123       Mn131   2.235   1_556  S
N124        C134   1.361       .  A
N125        N126   1.325       .  A
N125        N127   1.314   1_556  A
N125       Mn132   2.197       .  S
N126        C135   1.355   1_556  A
N127        N128   1.310       .  A
N127       Mn131   2.172       .  S
N128        C135   1.346       .  A
N129        N130   1.312       .  A
N129       Mn132   2.156       .  S
N130        C134   1.343       .  A
Mn131      Cl133   2.524   1_554  S
Mn132      Cl133   2.549       .  S
C134        C512   1.472   1_565  S
C135        C532   1.471   1_565  S
N136        N137   1.331       .  A
N136        N142   1.317       .  A
N136       Mn165   2.256       .  S
N137        C144   1.365       .  A
N138        N140   1.315       .  A
N138        N139   1.322       .  A
N138       Mn154   2.203       .  S
N139        C145   1.355       .  A
N140        N141   1.319       .  A
N140       Mn165   2.189       .  S
N141        C145   1.349       .  A
N142        N143   1.310       .  A
N142       Mn154   2.161       .  S
N143        C144   1.341       .  A
C144        C655   1.477       .  S
C145        C462   1.477       .  S
N146        N152   1.318       .  A
N146        N147   1.322       .  A
N146       Mn176   2.228       .  S
N147        C155   1.356       .  A
N148        N149   1.322       .  A
N148        N150   1.314       .  A
N148       Mn154   2.197       .  S
N149        C156   1.351       .  A
N150        N151   1.315       .  A
N150       Mn176   2.173       .  S
N151        C156   1.348       .  A
N152        N153   1.317       .  A
N152       Mn154   2.182       .  S
N153        C155   1.351       .  A
Mn154      Cl178   2.543       .  S
C155        C485   1.475       .  S
C156        C442   1.458   1_655  S
N157        N158   1.324       .  A
N157        N163   1.320       .  A
N157       Mn165   2.242       .  S
N158        C166   1.357       .  A
N159        N161   1.313       .  A
N159        N160   1.318       .  A
N159       Mn177   2.181       .  S
N160        C167   1.349       .  A
N161        N162   1.321       .  A
N161       Mn165   2.197       .  S
N162        C167   1.355       .  A
N163        N164   1.318       .  A
N163       Mn177   2.183       .  S
N164        C166   1.348       .  A
Mn165      Cl178   2.540       .  S
C166        C645   1.468       .  S
C167        C495   1.475       .  S
N168        N169   1.329       .  A
N168        N174   1.315       .  A
N168       Mn176   2.243       .  S
N169        C179   1.363       .  A
N170        N171   1.325       .  A
N170        N172   1.314       .  A
N170       Mn177   2.210       .  S
N171        C180   1.357       .  A
N172        N173   1.314       .  A
N172       Mn176   2.168       .  S
N173        C180   1.345       .  A
N174        N175   1.311       .  A
N174       Mn177   2.158       .  S
N175        C179   1.343       .  A
Mn176      Cl178   2.525       .  S
Mn177      Cl178   2.545       .  S
C179        C452   1.476   1_565  S
C180        C472   1.472   1_565  S
N181        N182   1.328       .  A
N181        N187   1.316       .  A
N181       Mn210   2.244       .  S
N182        C189   1.362       .  A
N183        N185   1.315       .  A
N183        N184   1.323       .  A
N183       Mn199   2.197       .  S
N184        C190   1.355       .  A
N185        N186   1.314       .  A
N185       Mn210   2.181       .  S
N186        C190   1.347       .  A
N187        N188   1.313       .  A
N187       Mn199   2.163       .  S
N188        C189   1.344       .  A
C189        C632   1.478       .  S
C190        C525   1.469       .  S
N191        N197   1.318       .  A
N191        N192   1.325       .  A
N191       Mn221   2.247       .  S
N192        C200   1.359       .  A
N193        N194   1.318       .  A
N193        N195   1.313       .  A
N193       Mn199   2.187       .  S
N194        C201   1.350       .  A
N195        N196   1.321       .  A
N195       Mn221   2.191       .  S
N196        C201   1.354       .  A
N197        N198   1.320       .  A
N197       Mn199   2.187       .  S
N198        C200   1.351       .  A
Mn199      Cl223   2.554       .  S
C200        C422   1.483       .  S
C201        C412   1.471       .  S
N202        N203   1.325   1_554  A
N202        N208   1.317       .  A
N202       Mn210   2.238       .  S
N203        C211   1.359       .  A
N204        N206   1.314       .  A
N204        N205   1.321       .  A
N204       Mn222   2.192       .  S
N205        C212   1.351       .  A
N206        N207   1.318       .  A
N206       Mn210   2.189       .  S
N207        C212   1.351       .  A
N208        N209   1.316   1_554  A
N208       Mn222   2.178       .  S
N209        C211   1.348       .  A
Mn210      Cl223   2.526       .  S
C211        C402   1.477       .  S
C212        C545   1.462       .  S
N213        N214   1.330       .  A
N213        N219   1.317       .  A
N213       Mn221   2.249       .  S
N214        C224   1.363       .  A
N215        N216   1.323       .  A
N215        N217   1.314       .  A
N215       Mn222   2.190       .  S
N216        C225   1.354       .  A
N217        N218   1.311       .  A
N217       Mn221   2.177       .  S
N218        C225   1.348       .  A
N219        N220   1.312       .  A
N219       Mn222   2.163       .  S
N220        C224   1.343       .  A
Mn221      Cl223   2.531       .  S
Mn222      Cl223   2.549       .  S
C224        C432   1.476       .  S
C225        C535   1.468       .  S
N226        N227   1.323       .  A
N226        N232   1.316       .  A
N226       Mn255   2.208       .  S
N227        C234   1.353       .  A
N228        N230   1.319       .  A
N228        N229   1.322       .  A
N228       Mn244   2.229       .  S
N229        C235   1.355       .  A
N230        N231   1.319       .  A
N230       Mn255   2.184       .  S
N231        C235   1.350       .  A
N232        N233   1.315       .  A
N232       Mn244   2.170       .  S
N233        C234   1.345       .  A
C234        C555   1.461       .  S
C235        C405   1.474       .  S
N236        N242   1.315       .  A
N236        N237   1.327       .  A
N236       Mn266   2.214       .  S
N237        C245   1.358       .  A
N238        N239   1.328       .  A
N238        N240   1.314       .  A
N238       Mn244   2.243       .  S
N239        C246   1.363       .  A
N240        N241   1.309       .  A
N240       Mn266   2.143       .  S
N241        C246   1.343       .  A
N242        N243   1.312       .  A
N242       Mn244   2.172       .  S
N243        C245   1.344       .  A
Mn244      Cl268   2.509       .  S
C245        C392   1.475       .  S
C246        C622   1.474       .  S
N247        N248   1.327       .  A
N247        N253   1.316       .  A
N247       Mn255   2.220       .  S
N248        C256   1.358       .  A
N249        N251   1.317       .  A
N249        N250   1.328       .  A
N249       Mn267   2.241       .  S
N250        C257   1.362       .  A
N251        N252   1.313       .  A
N251       Mn255   2.173       .  S
N252        C257   1.345       .  A
N253        N254   1.313       .  A
N253       Mn267   2.176       .  S
N254        C256   1.346       .  A
Mn255      Cl268   2.562       .  S
C256        C385   1.480       .  S
C257        C465   1.476       .  S
N258        N259   1.320       .  A
N258        N264   1.314       .  A
N258       Mn266   2.200       .  S
N259        C269   1.352       .  A
N260        N261   1.322       .  A
N260        N262   1.318       .  A
N260       Mn267   2.236       .  S
N261        C270   1.358       .  A
N262        N263   1.316       .  A
N262       Mn266   2.169       .  S
N263        C270   1.347       .  A
N264        N265   1.319       .  A
N264       Mn267   2.186       .  S
N265        C269   1.351       .  A
Mn266      Cl268   2.564       .  S
Mn267      Cl268   2.525       .  S
C269        C415   1.471       .  S
C270        C475   1.469       .  S
N271        N272   1.332       .  A
N271        N277   1.319       .  A
N271       Mn300   2.267       .  S
N272        C279   1.366       .  A
N273        N275   1.315       .  A
N273        N274   1.322       .  A
N273       Mn289   2.206       .  S
N274        C280   1.355       .  A
N275        N276   1.320       .  A
N275       Mn300   2.192       .  S
N276        C280   1.350       .  A
N277        N278   1.313       .  A
N277       Mn289   2.172       .  S
N278        C279   1.341       .  A
C279        C675   1.479   1_545  S
C280        C435   1.481       .  S
N281        N287   1.320       .  A
N281        N282   1.324       .  A
N281       Mn311   2.243       .  S
N282        C290   1.358       .  A
N283        N284   1.321       .  A
N283        N285   1.312       .  A
N283       Mn289   2.190       .  S
N284        C291   1.351   1_545  A
N285        N286   1.317       .  A
N285       Mn311   2.180       .  S
N286        C291   1.350   1_545  A
N287        N288   1.319       .  A
N287       Mn289   2.196       .  S
N288        C290   1.352       .  A
Mn289      Cl313   2.546       .  S
C290        C372   1.484       .  S
C291        C505   1.462       .  S
N292        N293   1.325       .  A
N292        N298   1.322       .  A
N292       Mn300   2.258       .  S
N293        C301   1.360       .  A
N294        N296   1.312       .  A
N294        N295   1.321       .  A
N294       Mn312   2.195       .  S
N295        C302   1.351       .  A
N296        N297   1.322       .  A
N296       Mn300   2.197       .  S
N297        C302   1.356       .  A
N298        N299   1.322       .  A
N298       Mn312   2.210       .  S
N299        C301   1.354       .  A
Mn300      Cl313   2.548       .  S
C301        C665   1.492       .  S
C302        C362   1.482       .  S
N303        N304   1.326   1_455  A
N303        N309   1.317       .  A
N303       Mn311   2.240       .  S
N304        C314   1.361       .  A
N305        N306   1.327   1_455  A
N305        N307   1.317       .  A
N305       Mn312   2.218       .  S
N306        C315   1.357       .  A
N307        N308   1.318   1_455  A
N307       Mn311   2.185       .  S
N308        C315   1.347       .  A
N309        N310   1.315   1_455  A
N309       Mn312   2.172       .  S
N310        C314   1.345       .  A
Mn311      Cl313   2.532       .  S
Mn312      Cl313   2.551       .  S
C314        C455   1.478       .  S
C315        C425   1.486       .  S
N316        N317   1.330       .  A
N316        N322   1.318       .  A
N316       Mn345   2.256       .  S
N317        C324   1.364       .  A
N318        N320   1.316       .  A
N318        N319   1.322       .  A
N318       Mn334   2.186       .  S
N319        C325   1.351       .  A
N320        N321   1.319       .  A
N320       Mn345   2.205       .  S
N321        C325   1.353       .  A
N322        N323   1.313       .  A
N322       Mn334   2.169       .  S
N323        C324   1.341       .  A
C324        C595   1.472   1_545  S
C325        C395   1.477       .  S
N326        N332   1.318       .  A
N326        N327   1.326       .  A
N326       Mn356   2.240       .  S
N327        C335   1.360       .  A
N328        N329   1.318       .  A
N328        N330   1.311       .  A
N328       Mn334   2.175       .  S
N329        C336   1.349   1_545  A
N330        N331   1.319       .  A
N330       Mn356   2.192       .  S
N331        C336   1.354   1_545  A
N332        N333   1.316       .  A
N332       Mn334   2.188       .  S
N333        C335   1.350       .  A
Mn334      Cl358   2.535       .  S
C335        C365   1.483       .  S
C336        C445   1.464       .  S
N337        N338   1.327       .  A
N337        N343   1.320       .  A
N337       Mn345   2.256       .  S
N338        C346   1.361       .  A
N339        N341   1.312       .  A
N339        N340   1.319       .  A
N339       Mn357   2.189       .  S
N340        C347   1.350       .  A
N341        N342   1.324       .  A
N341       Mn345   2.207       .  S
N342        C347   1.357       .  A
N343        N344   1.319       .  A
N343       Mn357   2.198       .  S
N344        C346   1.351       .  A
Mn345      Cl358   2.554       .  S
C346        C585   1.489       .  S
C347        C375   1.483       .  S
N348        N349   1.325   1_455  A
N348        N354   1.317       .  A
N348       Mn356   2.235       .  S
N349        C359   1.360       .  A
N350        N351   1.324   1_455  A
N350        N352   1.316       .  A
N350       Mn357   2.198       .  S
N351        C360   1.353       .  A
N352        N353   1.317   1_455  A
N352       Mn356   2.192       .  S
N353        C360   1.349       .  A
N354        N355   1.314   1_455  A
N354       Mn357   2.169       .  S
N355        C359   1.345       .  A
Mn356      Cl358   2.542       .  S
Mn357      Cl358   2.541       .  S
C359        C515   1.474       .  S
C360        C382   1.477       .  S
C361        C362   1.409       .  A
C361        C366   1.403       .  A
C361        H367   1.082       .  S
C362        C363   1.402       .  A
C363        C364   1.396       .  A
C363        H368   1.083       .  S
C364        C365   1.407       .  A
C364        H369   1.082       .  S
C365        C366   1.404       .  A
C366        H370   1.083       .  S
C371        C372   1.404       .  A
C371        C376   1.401   1_554  A
C371        H377   1.083       .  S
C372        C373   1.408       .  A
C373        C374   1.400   1_554  A
C373        H378   1.082       .  S
C374        C375   1.403       .  A
C374        H379   1.083       .  S
C375        C376   1.408       .  A
C376        H380   1.082       .  S
C381        C382   1.400       .  A
C381        C386   1.390       .  A
C381        H387   1.084       .  S
C382        C383   1.409       .  A
C383        C384   1.406       .  A
C383        H388   1.082       .  S
C384        C385   1.405       .  A
C384        H389   1.083       .  S
C385        C386   1.406       .  A
C386        H390   1.082       .  S
C391        C392   1.406       .  A
C391        C396   1.405       .  A
C391        H397   1.083       .  S
C392        C393   1.404       .  A
C393        C394   1.391       .  A
C393        H398   1.083       .  S
C394        C395   1.401       .  A
C394        H399   1.083       .  S
C395        C396   1.407       .  A
C396        H400   1.082       .  S
C401        C402   1.407       .  A
C401        C406   1.397       .  A
C401        H407   1.083       .  S
C402        C403   1.402       .  A
C403        C404   1.401       .  A
C403        H408   1.082       .  S
C404        C405   1.407       .  A
C404        H409   1.084       .  S
C405        C406   1.400       .  A
C406        H410   1.083       .  S
C411        C412   1.404       .  A
C411        C416   1.395       .  A
C411        H417   1.084       .  S
C412        C413   1.403       .  A
C413        C414   1.398       .  A
C413        H418   1.083       .  S
C414        C415   1.404       .  A
C414        H419   1.083       .  S
C415        C416   1.402       .  A
C416        H420   1.083       .  S
C421        C422   1.409       .  A
C421        C426   1.405       .  A
C421        H427   1.083       .  S
C422        C423   1.401       .  A
C423        C424   1.399       .  A
C423        H428   1.083       .  S
C424        C425   1.410       .  A
C424        H429   1.083       .  S
C425        C426   1.403       .  A
C426        H430   1.083       .  S
C431        C432   1.402       .  A
C431        C436   1.405       .  A
C431        H437   1.082       .  S
C432        C433   1.406       .  A
C433        C434   1.394       .  A
C433        H438   1.084       .  S
C434        C435   1.400       .  A
C434        H439   1.082       .  S
C435        C436   1.410       .  A
C436        H440   1.083       .  S
C441        C442   1.398       .  A
C441        C446   1.397       .  A
C441        H447   1.083       .  S
C442        C443   1.404   1_455  A
C443        C444   1.394   1_655  A
C443        H448   1.084       .  S
C444        C445   1.399       .  A
C444        H449   1.084   1_455  S
C445        C446   1.406       .  A
C446        H450   1.083       .  S
C451        C452   1.410       .  A
C451        C456   1.396       .  A
C451        H457   1.083   1_545  S
C452        C453   1.399       .  A
C453        C454   1.401       .  A
C453        H458   1.083       .  S
C454        C455   1.412       .  A
C454        H459   1.083       .  S
C455        C456   1.398       .  A
C456        H460   1.083       .  S
C461        C462   1.409       .  A
C461        C466   1.403       .  A
C461        H467   1.083       .  S
C462        C463   1.399       .  A
C463        C464   1.394       .  A
C463        H468   1.083       .  S
C464        C465   1.407       .  A
C464        H469   1.083       .  S
C465        C466   1.402       .  A
C466        H470   1.082       .  S
C471        C472   1.400       .  A
C471        C476   1.399       .  A
C471        H477   1.083       .  S
C472        C473   1.408       .  A
C473        C474   1.393       .  A
C473        H478   1.083       .  S
C474        C475   1.397       .  A
C474        H479   1.083       .  S
C475        C476   1.408       .  A
C476        H480   1.083       .  S
C481        C482   1.402       .  A
C481        C486   1.396       .  A
C481        H487   1.083       .  S
C482        C483   1.406       .  A
C483        C484   1.398       .  A
C483        H488   1.083       .  S
C484        C485   1.403       .  A
C484        H489   1.083       .  S
C485        C486   1.406       .  A
C486        H490   1.083       .  S
C491        C492   1.403       .  A
C491        C496   1.399       .  A
C491        H497   1.083       .  S
C492        C493   1.406       .  A
C493        C494   1.395       .  A
C493        H498   1.083       .  S
C494        C495   1.401       .  A
C494        H499   1.083       .  S
C495        C496   1.407       .  A
C496        H500   1.083       .  S
C501        C502   1.400       .  A
C501        C506   1.394       .  A
C501        H507   1.084       .  S
C502        C503   1.405       .  A
C503        C504   1.399       .  A
C503        H508   1.083   1_455  S
C504        C505   1.400       .  A
C504        H509   1.083       .  S
C505        C506   1.403       .  A
C506        H510   1.084   1_565  S
C511        C512   1.398       .  A
C511        C516   1.398       .  A
C511        H517   1.083       .  S
C512        C513   1.409       .  A
C513        C514   1.395       .  A
C513        H518   1.083   1_545  S
C514        C515   1.398       .  A
C514        H519   1.083       .  S
C515        C516   1.410       .  A
C516        H520   1.083       .  S
C521        C522   1.403       .  A
C521        C526   1.389       .  A
C521        H527   1.083   1_554  S
C522        C523   1.405       .  A
C523        C524   1.401       .  A
C523        H528   1.083       .  S
C524        C525   1.405       .  A
C524        H529   1.083       .  S
C525        C526   1.401       .  A
C526        H530   1.083   1_554  S
C531        C532   1.403       .  A
C531        C536   1.382       .  A
C531        H537   1.083       .  S
C532        C533   1.406       .  A
C533        C534   1.405       .  A
C533        H538   1.082   1_554  S
C534        C535   1.406       .  A
C534        H539   1.083   1_554  S
C535        C536   1.399       .  A
C536        H540   1.083       .  S
C541        C542   1.400       .  A
C541        C546   1.395       .  A
C541        H547   1.084       .  S
C542        C543   1.405       .  A
C543        C544   1.398   1_556  A
C543        H548   1.083   1_556  S
C544        C545   1.399       .  A
C544        H549   1.083       .  S
C545        C546   1.403   1_554  A
C546        H550   1.084       .  S
C551        C552   1.408       .  A
C551        C556   1.391       .  A
C551        H557   1.083       .  S
C552        C553   1.402       .  A
C553        C554   1.403       .  A
C553        H558   1.083       .  S
C554        C555   1.406       .  A
C554        H559   1.083       .  S
C555        C556   1.395       .  A
C556        H560   1.084       .  S
C561        C562   1.410       .  A
C561        C566   1.396       .  A
C561        H567   1.083       .  S
C562        C563   1.402       .  A
C563        C564   1.402       .  A
C563        H568   1.083       .  S
C564        C565   1.408       .  A
C564        H569   1.083       .  S
C565        C566   1.398       .  A
C566        H570   1.083       .  S
C571        C572   1.401       .  A
C571        C576   1.395       .  A
C571        H577   1.082       .  S
C572        C573   1.411       .  A
C573        C574   1.404   1_455  A
C573        H578   1.083       .  S
C574        C575   1.401       .  A
C574        H579   1.082       .  S
C575        C576   1.406   1_655  A
C576        H580   1.084   1_455  S
C581        C582   1.408       .  A
C581        C586   1.402       .  A
C581        H587   1.083       .  S
C582        C583   1.401       .  A
C583        C584   1.406       .  A
C583        H588   1.083       .  S
C584        C585   1.411       .  A
C584        H589   1.083       .  S
C585        C586   1.402       .  A
C586        H590   1.083       .  S
C591        C592   1.405       .  A
C591        C596   1.408       .  A
C591        H597   1.083       .  S
C592        C593   1.406       .  A
C593        C594   1.396       .  A
C593        H598   1.084       .  S
C594        C595   1.400       .  A
C594        H599   1.084       .  S
C595        C596   1.407       .  A
C596        H600   1.083       .  S
C601        C602   1.407       .  A
C601        C606   1.395       .  A
C601        H607   1.082       .  S
C602        C603   1.403       .  A
C603        C604   1.401       .  A
C603        H608   1.083       .  S
C604        C605   1.407       .  A
C604        H609   1.082       .  S
C605        C606   1.401       .  A
C606        H610   1.084       .  S
C611        C612   1.403       .  A
C611        C616   1.396       .  A
C611        H617   1.084       .  S
C612        C613   1.405       .  A
C613        C614   1.398       .  A
C613        H618   1.082       .  S
C614        C615   1.404       .  A
C614        H619   1.084       .  S
C615        C616   1.405       .  A
C616        H620   1.082       .  S
C621        C622   1.401       .  A
C621        C626   1.401       .  A
C621        H627   1.083       .  S
C622        C623   1.410       .  A
C623        C624   1.391       .  A
C623        H628   1.083       .  S
C624        C625   1.393       .  A
C624        H629   1.084       .  S
C625        C626   1.406       .  A
C626        H630   1.083       .  S
C631        C632   1.399       .  A
C631        C636   1.399       .  A
C631        H637   1.083       .  S
C632        C633   1.411       .  A
C633        C634   1.399       .  A
C633        H638   1.083       .  S
C634        C635   1.399       .  A
C634        H639   1.083       .  S
C635        C636   1.411       .  A
C636        H640   1.083       .  S
C641        C642   1.405       .  A
C641        C646   1.401       .  A
C641        H647   1.082       .  S
C642        C643   1.409       .  A
C643        C644   1.397       .  A
C643        H648   1.083       .  S
C644        C645   1.398       .  A
C644        H649   1.083       .  S
C645        C646   1.404       .  A
C646        H650   1.084       .  S
C651        C652   1.399       .  A
C651        C656   1.394       .  A
C651        H657   1.083       .  S
C652        C653   1.411       .  A
C653        C654   1.405   1_455  A
C653        H658   1.083       .  S
C654        C655   1.401       .  A
C654        H659   1.082       .  S
C655        C656   1.408   1_655  A
C656        H660   1.084   1_455  S
C661        C662   1.407       .  A
C661        C666   1.401       .  A
C661        H667   1.084       .  S
C662        C663   1.402       .  A
C663        C664   1.408       .  A
C663        H668   1.083       .  S
C664        C665   1.411       .  A
C664        H669   1.082       .  S
C665        C666   1.404       .  A
C666        H670   1.083       .  S
C671        C672   1.403       .  A
C671        C676   1.402       .  A
C671        H677   1.083       .  S
C672        C673   1.411       .  A
C673        C674   1.406       .  A
C673        H678   1.083       .  S
C674        C675   1.402       .  A
C674        H679   1.083       .  S
C675        C676   1.407       .  A
C676        H680   1.083       .  S
