geometry optimzed in LAMMPS
_audit_creation_date              2020-11-30 
_audit_creation_method            'lammps2cif' 
_symmetry_space_group_name_H-M    'P1' 
_symmetry_Int_Tables_number       1 
_symmetry_cell_setting            triclinic 
loop_ 
_symmetry_equiv_pos_as_xyz 
  x,y,z 
_cell_length_a                    44.07786075 
_cell_length_b                    43.46214202686894 
_cell_length_c                    31.54213816953469 
_cell_angle_alpha                 90.20702999161456 
_cell_angle_beta                  90.58566977146225 
_cell_angle_gamma                 120.95150298561501 
loop_ 
_atom_site_label 
_atom_site_type_symbol 
_atom_site_fract_x 
_atom_site_fract_y 
_atom_site_fract_z 
_atom_site_charge 
O1          O  0.02754468  0.15493214  0.31213375    -0.87700
C2          C  0.10421303  0.17455636  0.23142151     0.88300
Mg3        Mg  0.03049868  0.19078121  0.36153880     1.58100
O4          O  0.07734251  0.11123556  0.31104870    -0.87500
O5          O  0.00304276  0.09795001  0.29692992    -0.74800
C6          C  0.18608393  0.24015089  0.46266563     0.93300
O7          O  0.08962236  0.23018847  0.28258577    -0.74600
O8          O  0.17100211  0.25893940  0.45988095    -0.82100
Mg9        Mg  0.04387864  0.17890604  0.24965733     1.58000
C10         C  0.15765599  0.12626276  0.37963055     0.93300
O11         O  0.49747165  0.12991056  0.21754312    -0.80400
H12         H  0.03775889  0.06996915  0.34152579    -0.05700
C13         C  0.16257639  0.21224632  0.34802556     0.88200
O14         O  0.03487216  0.15842826  0.41526817    -0.74900
O15         O  0.07399293  0.15499032  0.24513432    -0.87700
O16         O  0.13190476  0.10876060  0.35498151    -0.80500
C17         C  0.11922540  0.09775914  0.21877803     0.93400
C18         C  0.48223522  0.09845140  0.20117754     0.93200
Mg19       Mg  0.12158233  0.15830282  0.41561516     1.58000
O20         O  0.16996296  0.20816052  0.44726448    -0.80400
O21         O  0.07361863  0.10851666  0.38169556    -0.74600
O22         O  0.08836097  0.09314252  0.21007410    -0.80500
O23         O  0.50951393  0.20333473  0.24729092    -0.82200
O24         O  0.08196444  0.24827272  0.45143929    -0.80500
C25         C  0.06210481  0.09561518  0.34431431     0.87700
O26         O  0.09275179  0.18442424  0.42020935    -0.87700
O27         O  0.13729193  0.18139357  0.35283168    -0.87800
O28         O  0.16284687  0.23920694  0.36410799    -0.74800
Mg29       Mg  0.04484576  0.09725684  0.25437694     1.58000
O30         O  0.13422541  0.10995212  0.25419645    -0.82200
H31         H  0.97985303  0.11837391  0.33371577    -0.05900
O32         O  0.08703539  0.22690176  0.35295688    -0.87500
H33         H  0.12367988  0.27025000  0.32243186    -0.05700
H34         H  0.05972390  0.14867258  0.46322168    -0.05900
C35         C  0.10073504  0.24351295  0.31974993     0.87600
C36         C  0.00252169  0.12376154  0.31513025     0.88200
C37         C  0.06235523  0.16389473  0.43503341     0.88300
H38         H  0.18469104  0.21638877  0.32914869    -0.05900
O39         O  0.13121826  0.17793725  0.25067658    -0.74900
Mg40       Mg  0.12335765  0.24296074  0.40739460     1.58000
H41         H  0.10783561  0.19076671  0.20386596    -0.05900
C42         C  0.49881832  0.20468089  0.28349842     0.93300
O43         O  0.03163368  0.22568966  0.41261037    -0.82100
C44         C  0.04991323  0.24117957  0.44560065     0.93300
O45         O  0.99894526  0.08129805  0.20118353    -0.82100
Mg46       Mg  0.13305892  0.14415203  0.30452145     1.58200
O47         O  0.52177232  0.22153945  0.31233932    -0.80500
O48         O  0.15239895  0.13102643  0.41731299    -0.82200
C49         C  0.13988232  0.05695577  0.19324774     0.02900
C50         C  0.14044853  0.08955283  0.18897242     0.02800
C51         C  0.16965290  0.11819488  0.16701803    -0.17700
C52         C  0.19658629  0.11422829  0.14702916     0.02900
C53         C  0.19289930  0.07964630  0.14896535     0.02800
C54         C  0.16517004  0.05241996  0.17237371    -0.17700
H55         H  0.16360809  0.02672019  0.17520413     0.04900
H56         H  0.17169610  0.14411633  0.16601417     0.04900
C57         C  0.41335377  0.05506751  0.18284319     0.02900
C58         C  0.44746859  0.08739735  0.17820112     0.02800
C59         C  0.44789558  0.11637040  0.15673448    -0.17700
C60         C  0.41722914  0.11614945  0.14298864     0.02900
C61         C  0.38403869  0.08495871  0.14679217     0.02800
C62         C  0.38284213  0.05495988  0.16573360    -0.17700
H63         H  0.35714181  0.03050559  0.16651415     0.04900
H64         H  0.47313328  0.14068400  0.15137044     0.04900
O65         O  0.14861308  0.46590123  0.35466090    -0.87700
C66         C  0.06803184  0.40016341  0.43170493     0.88300
Mg67       Mg  0.14592867  0.50258991  0.30999560     1.58100
O68         O  0.09627720  0.36509890  0.35159037    -0.87500
O69         O  0.16953070  0.43058076  0.36679240    -0.74800
C70         C  0.49123607  0.38816835  0.21252888     0.93300
O71         O  0.08884670  0.48010599  0.39021849    -0.74600
O72         O  0.00644427  0.42230883  0.21798004    -0.82100
Mg73       Mg  0.13155259  0.46950059  0.41713145     1.58000
C74         C  0.51824833  0.29515607  0.27402945     0.93300
O75         O  0.17370299  0.46462587  0.44791790    -0.80400
H76         H  0.13634047  0.36539853  0.32182348    -0.05700
C77         C  0.01486380  0.38126611  0.32418669     0.88200
O78         O  0.13941833  0.46706639  0.25353963    -0.74900
O79         O  0.09790228  0.41368898  0.41646225    -0.87700
O80         O  0.54015183  0.30397490  0.30446493    -0.80500
C81         C  0.05315716  0.30860622  0.44376410     0.93400
C82         C  0.18645953  0.44759078  0.46511940     0.93200
Mg83       Mg  0.05638996  0.37328993  0.24982418     1.58000
O84         O  0.50715395  0.37177306  0.22330294    -0.80400
O85         O  0.10340229  0.37115260  0.28147033    -0.74600
O86         O  0.08184437  0.33850326  0.45250167    -0.80500
O87         O  0.17263625  0.02600894  0.42041148    -0.82200
O88         O  0.09167314  0.50299747  0.22359384    -0.80500
C89         C  0.11261524  0.36676958  0.31868394     0.87700
O90         O  0.08280311  0.42853307  0.25247793    -0.87700
O91         O  0.03978675  0.37604703  0.31554623    -0.87800
O92         O  0.01523539  0.40922848  0.31195145    -0.74800
Mg93       Mg  0.12661792  0.38556822  0.40863903     1.58000
O94         O  0.04161703  0.29999588  0.40596854    -0.82200
H95         H  0.19497467  0.47590782  0.33154318    -0.05900
O96         O  0.09035871  0.47850650  0.32070141    -0.87500
H97         H  0.05761536  0.48965074  0.35137879    -0.05700
H98         H  0.11443528  0.43059815  0.20624957    -0.05900
C99         C  0.07829405  0.48331222  0.35367859     0.87600
C100        C  0.17198440  0.45842509  0.35008430     0.88200
C101        C  0.11195741  0.44200273  0.23559944     0.88300
H102        H  0.99402852  0.36250038  0.34445883    -0.05900
O103        O  0.04200683  0.37204105  0.41547035    -0.74900
Mg104      Mg  0.05344964  0.45452676  0.26830847     1.58000
H105        H  0.06390925  0.41273337  0.45889210    -0.05900
C106        C  0.18037121  0.05016349  0.39372790     0.93300
O107        O  0.14169733  0.03792721  0.26138078    -0.82100
C108        C  0.12222732  0.53171540  0.22853743     0.93300
O109        O  0.16893462  0.41327754  0.46421106    -0.82100
Mg110      Mg  0.04096400  0.33772880  0.35917170     1.58200
O111        O  0.16024279  0.04531885  0.36199105    -0.80500
O112        O  0.52719195  0.31397136  0.24123656    -0.82200
O113        O  0.32903394  0.36698529  0.35191335    -0.87700
C114        C  0.34078111  0.43979174  0.43910773     0.88300
Mg115      Mg  0.37193658  0.37453926  0.30901251     1.58100
O116        O  0.27858287  0.41524281  0.35693580    -0.87500
O117        O  0.27196818  0.34264465  0.36209621    -0.74800
C118        C  0.40433537  0.02191640  0.20831426     0.93300
O119        O  0.39843597  0.43021475  0.39015484    -0.74600
O120        O  0.42276185  0.50648886  0.20985597    -0.82100
Mg121      Mg  0.34781381  0.37891577  0.41725263     1.58000
C122        C  0.28831693  0.99964035  0.29052970     0.93300
O123        O  0.29873322  0.32897224  0.44527105    -0.80400
H124        H  0.23652015  0.37749265  0.32438502    -0.05700
C125        C  0.37897282  0.50237269  0.32497074     0.88200
O126        O  0.34021072  0.37487035  0.25065092    -0.74900
O127        O  0.32270904  0.40921278  0.42376217    -0.87700
O128        O  0.27507248  0.97491762  0.31742695    -0.80500
C129        C  0.25894812  0.45121819  0.45052942     0.93400
C130        C  0.26799207  0.31521946  0.46148229     0.93200
Mg131      Mg  0.32693879  0.46039598  0.25726504     1.58000
O132        O  0.37411760  0.00708820  0.22563158    -0.80400
O133        O  0.27615923  0.41291486  0.28666342    -0.74600
O134        O  0.25721081  0.42075772  0.45654082    -0.80500
O135        O  0.37131617  0.34221141  0.41392134    -0.82200
O136        O  0.41850649  0.42022450  0.21973661    -0.80500
C137        C  0.26266110  0.40114349  0.32304553     0.87700
O138        O  0.35286908  0.43051025  0.25260402    -0.87700
O139        O  0.34844095  0.47653516  0.32055314    -0.87800
O140        O  0.40503018  0.50293198  0.30712122    -0.74800
Mg141      Mg  0.26623797  0.38003707  0.40982183     1.58000
O142        O  0.27164426  0.46896419  0.41676717    -0.82200
H143        H  0.29275697  0.32308240  0.32018188    -0.05900
O144        O  0.39852058  0.43014471  0.31959334    -0.87500
H145        H  0.43716445  0.46968325  0.35466963    -0.05700
H146        H  0.32208236  0.39608436  0.20686492    -0.05900
C147        C  0.41232565  0.44439184  0.35445081     0.87600
C148        C  0.29797993  0.34354017  0.34356264     0.88200
C149        C  0.33783606  0.40057554  0.23525967     0.88300
H150        H  0.38363321  0.52503338  0.34428190    -0.05900
O151        O  0.34190626  0.46680086  0.42201729    -0.74900
Mg152      Mg  0.41001505  0.46257233  0.26391441     1.58000
H153        H  0.35725057  0.44385608  0.46668451    -0.05900
C154        C  0.38796723  0.34565513  0.38036338     0.93300
O155        O  0.41550208  0.38005662  0.26583663    -0.82100
C156        C  0.42194692  0.39305142  0.22883967     0.93300
O157        O  0.25147633  0.33258461  0.46019316    -0.82100
Mg158      Mg  0.30958661  0.47122457  0.36756213     1.58200
O159        O  0.40422829  0.37603230  0.36412619    -0.80500
O160        O  0.30471603  0.99727454  0.25930273    -0.82200
C161        C  0.42549827  0.36997571  0.19566594     0.02900
C162        C  0.45516390  0.36520114  0.19182906     0.02800
C163        C  0.45017500  0.33443592  0.16931248    -0.17700
C164        C  0.41831178  0.30881989  0.14863627     0.02900
C165        C  0.38867623  0.31384300  0.15203044     0.02800
C166        C  0.39323805  0.34390336  0.17595106    -0.17700
H167        H  0.37056814  0.34719598  0.17926581     0.04900
H168        H  0.47288069  0.33126899  0.16551657     0.04900
O169        O  0.30253084  0.51392599  0.02242970    -0.87700
C170        C  0.26897416  0.08303674  0.02483824     0.88300
Mg171      Mg  0.30387703  0.48663237  0.96732358     1.58100
O172        O  0.22206021  0.99711288  0.07219458    -0.87500
O173        O  0.29397271  0.50447066  0.09014071    -0.74800
C174        C  0.14280750  0.41634214  0.88261662     0.93300
O175        O  0.30010239  0.06024261  0.94866563    -0.74600
O176        O  0.17157419  0.42049021  0.86720476    -0.82100
Mg177      Mg  0.32757097  0.07122684  0.01565477     1.58000
C178        C  0.12009742  0.44447648  0.03846010     0.93300
O179        O  0.35492267  0.07888962  0.08114334    -0.80400
H180        H  0.22019214  0.45998237  0.11153661    -0.05700
C181        C  0.18860890  0.99785290  0.94837492     0.88200
O182        O  0.25830942  0.43278875  0.98911369    -0.74900
O183        O  0.28221823  0.06747208  0.04504885    -0.87700
O184        O  0.14652575  0.96197927  0.06226967    -0.80500
C185        C  0.20985014  0.06573808  0.12073454     0.93400
C186        C  0.35267142  0.07997202  0.12138157     0.93200
Mg187      Mg  0.16791412  0.42782363  0.98813176     1.58000
O188        O  0.13979113  0.41898677  0.92246646    -0.80400
O189        O  0.19466172  0.43891460  0.05538774    -0.74600
O190        O  0.24054011  0.07003128  0.12868328    -0.80500
O191        O  0.37680195  0.07787237  0.98930047    -0.82200
O192        O  0.25540286  0.42824236  0.87861745    -0.80500
C193        C  0.21257274  0.46538906  0.08105007     0.87700
O194        O  0.21264098  0.43235386  0.96027202    -0.87700
O195        O  0.19177855  0.98524116  0.98195635    -0.87800
O196        O  0.19978123  0.99245843  0.91396003    -0.74800
Mg197      Mg  0.26826928  0.03732058  0.10612952     1.58000
O198        O  0.18926899  0.04419171  0.09226486    -0.82200
H199        H  0.31799188  0.48447696  0.05429851    -0.05900
O200        O  0.27209739  0.00180511  0.93291665    -0.87500
H201        H  0.27320945  0.03833964  0.89339050    -0.05700
H202        H  0.20843675  0.38956993  0.98947273    -0.05900
C203        C  0.28144491  0.03338013  0.92373067     0.87600
C204        C  0.30564379  0.50046625  0.05534448     0.88200
C205        C  0.22569000  0.41679079  0.97902633     0.88300
H206        H  0.17630209  0.01389377  0.94836864    -0.05900
O207        O  0.23634020  0.06691945  0.01499172    -0.74900
Mg208      Mg  0.22624063  0.45993746  0.90024751     1.58000
H209        H  0.28627005  0.11000790  0.01365462    -0.05900
C210        C  0.37445152  0.05431915  0.96405319     0.93300
O211        O  0.30688606  0.45729780  0.91400755    -0.82100
C212        C  0.28702385  0.43493689  0.88605700     0.93300
O213        O  0.32401665  0.07448908  0.13887425    -0.82100
Mg214      Mg  0.19079455  0.01326843  0.03750933     1.58200
O215        O  0.34728752  0.53738506  0.94114516    -0.80500
O216        O  0.11834253  0.42034442  0.01464249    -0.82200
O217        O  0.20708911  0.19422664  0.02124175    -0.87700
C218        C  0.31035309  0.23418036  0.02884783     0.88300
Mg219      Mg  0.17855954  0.19170383  0.96464408     1.58100
O220        O  0.27190015  0.27873746  0.07618872    -0.87500
O221        O  0.20789445  0.20379666  0.08931794    -0.74800
C222        C  0.27260989  0.35744129  0.88688935     0.93300
O223        O  0.25835226  0.20128132  0.95019063    -0.74600
O224        O  0.24834718  0.32766009  0.87011201    -0.82100
Mg225      Mg  0.24130703  0.17256363  0.01584584     1.58000
C226        C  0.31919637  0.38343770  0.04755919     0.93300
O227        O  0.21956034  0.14184351  0.07997691    -0.80400
H228        H  0.23473595  0.27712886  0.11372457    -0.05700
C229        C  0.30660304  0.31317923  0.95463030     0.88200
O230        O  0.17005566  0.23668646  0.98721031    -0.74900
O231        O  0.28118495  0.21917230  0.04636568    -0.87700
O232        O  0.31121731  0.35660915  0.07028321    -0.80500
C233        C  0.35566715  0.29616386  0.12494602     0.93400
C234        C  0.22396382  0.14480918  0.12021655     0.93200
Mg235      Mg  0.25582512  0.33141565  0.99228421     1.58000
O236        O  0.27685420  0.36093030  0.92717977    -0.80400
O237        O  0.23955683  0.30306755  0.05841577    -0.74600
O238        O  0.32985247  0.26343669  0.12970498    -0.80500
O239        O  0.20023167  0.12146103  0.98524905    -0.82200
O240        O  0.16982933  0.24061586  0.87663442    -0.80500
C241        C  0.24851124  0.28602570  0.08401949     0.87700
O242        O  0.21621797  0.28476635  0.96170989    -0.87700
O243        O  0.29062646  0.31031363  0.98769593    -0.87800
O244        O  0.29018854  0.30082277  0.91968549    -0.74800
Mg245      Mg  0.26709620  0.23181453  0.10649585     1.58000
O246        O  0.35306541  0.31740301  0.09966742    -0.82200
H247        H  0.16277420  0.17860951  0.05368444    -0.05900
O248        O  0.22645624  0.22612347  0.93310331    -0.87500
H249        H  0.26352895  0.22784599  0.89531811    -0.05700
H250        H  0.17659697  0.28640658  0.98986148    -0.05900
C251        C  0.24968441  0.21872394  0.92495481     0.87600
C252        C  0.19128470  0.19146512  0.05444214     0.88200
C253        C  0.18698653  0.27002946  0.97905271     0.88300
H254        H  0.33512655  0.32621030  0.95555966    -0.05900
O255        O  0.32742544  0.26770520  0.02161372    -0.74900
Mg256      Mg  0.23118035  0.27220711  0.90186560     1.58000
H257        H  0.32070689  0.21796543  0.01733239    -0.05900
C258        C  0.17865725  0.12167570  0.95896378     0.93300
O259        O  0.14586529  0.18782795  0.90936376    -0.82100
C260        C  0.14406537  0.20816116  0.88205771     0.93300
O261        O  0.24832304  0.17464124  0.13719415    -0.82100
Mg262      Mg  0.31955769  0.31321449  0.04424609     1.58200
O263        O  0.18739201  0.14918866  0.93739473    -0.80500
O264        O  0.29635350  0.38314555  0.02296577    -0.82200
O265        O  0.49795156  0.29038514  0.97317849    -0.87700
C266        C  0.08536007  0.28215034  0.97476296     0.88300
Mg267      Mg  0.46941320  0.29738569  0.02945924     1.58100
O268        O  0.00205660  0.22319707  0.92566035    -0.87500
O269        O  0.50006698  0.29004850  0.90376247    -0.74800
C270        C  0.42199657  0.14600070  0.11621750     0.93300
O271        O  0.04863549  0.30529904  0.05002005    -0.74600
O272        O  0.41992146  0.17245956  0.13100557    -0.82100
Mg273      Mg  0.05611203  0.32895979  0.98139793     1.58000
C274        C  0.46786949  0.12849048  0.96313274     0.93300
O275        O  0.06382214  0.35319078  0.91567466    -0.80400
H276        H  0.46270461  0.21632514  0.88683386    -0.05700
C277        C  0.00555696  0.20204233  0.05596188     0.88200
O278        O  0.41771271  0.24721392  0.00984031    -0.74900
O279        O  0.06495829  0.28910098  0.95583606    -0.87700
O280        O  0.97570725  0.15365611  0.93872976    -0.80500
C281        C  0.07135092  0.21062586  0.88195477     0.93400
C282        C  0.07155051  0.35175733  0.87726859     0.93200
Mg283      Mg  0.43757851  0.16845053  0.01237754     1.58000
O284        O  0.42974154  0.14447019  0.07787584    -0.80400
O285        O  0.44516290  0.19217167  0.94378751    -0.74600
O286        O  0.07371412  0.24088964  0.87242670    -0.80500
O287        O  0.04640120  0.37347463  0.00006755    -0.82200
O288        O  0.42167170  0.25657685  0.12402953    -0.80500
C289        C  0.46997241  0.21089130  0.91752637     0.87700
O290        O  0.42843029  0.20818251  0.03820476    -0.87700
O291        O  0.99542442  0.20745474  0.02072820    -0.87800
O292        O  0.99353622  0.20690946  0.09004862    -0.74800
Mg293      Mg  0.03897955  0.26939599  0.89369789     1.58000
O294        O  0.05333558  0.19258675  0.91329150    -0.82200
H295        H  0.46918687  0.30430111  0.93584502    -0.05900
O296        O  0.49180943  0.27406808  0.06816671    -0.87500
H297        H  0.03120525  0.28119525  0.10702971    -0.05700
H298        H  0.38189451  0.19369436  0.01024386    -0.05900
C299        C  0.02387590  0.28651939  0.07630979     0.87600
C300        C  0.48794434  0.29535877  0.93757314     0.88200
C301        C  0.40795261  0.21523213  0.01967079     0.88300
H302        H  0.02433973  0.19312496  0.05712492    -0.05900
O303        O  0.07548929  0.25026513  0.98519677    -0.74900
Mg304      Mg  0.45500519  0.22782616  0.10030432     1.58000
H305        H  0.11140933  0.30373577  0.98413759    -0.05900
C306        C  0.02616041  0.36903640  0.03021641     0.93300
O307        O  0.44080738  0.30480808  0.08336416    -0.82100
C308        C  0.42425697  0.28706820  0.11571004     0.93300
O309        O  0.07347535  0.32516107  0.86247083    -0.82100
Mg310      Mg  0.02396769  0.20011860  0.96529849     1.58200
O311        O  0.51801806  0.34397384  0.05475882    -0.80500
O312        O  0.44866009  0.12451229  0.99427889    -0.82200
O313        O  0.16223673  0.02694663  0.69161845    -0.87700
C314        C  0.17046012  0.10599603  0.76734052     0.88300
Mg315      Mg  0.20210259  0.03341742  0.64727487     1.58100
O316        O  0.10858534  0.07318347  0.68468110    -0.87500
O317        O  0.10486204  0.00171002  0.69910473    -0.74800
C318        C  0.23270849  0.17966201  0.54554577     0.93300
O319        O  0.23277555  0.09612616  0.72499081    -0.74600
O320        O  0.25148383  0.16489593  0.54675495    -0.82100
Mg321      Mg  0.18290376  0.04811796  0.75476663     1.58000
C322        C  0.11486141  0.15293119  0.61124772     0.93300
O323        O  0.13524757  0.50036414  0.78354237    -0.80400
H324        H  0.06599199  0.03276716  0.65565558    -0.05700
C325        C  0.20500332  0.16092109  0.65597371     0.88200
O326        O  0.16832087  0.03169578  0.59049875    -0.74900
O327        O  0.15531927  0.07531829  0.75203046    -0.87700
O328        O  0.10103037  0.12837998  0.63844942    -0.80500
C329        C  0.08992632  0.11138316  0.77619615     0.93400
C330        C  0.10384173  0.48495185  0.79744947     0.93200
Mg331      Mg  0.15395918  0.11497362  0.58612813     1.58000
O332        O  0.20141266  0.16270322  0.55930720    -0.80400
O333        O  0.10360817  0.06688133  0.61486519    -0.74600
O334        O  0.09248656  0.08392009  0.78510200    -0.80500
O335        O  0.21025558  0.51651576  0.76244545    -0.82200
O336        O  0.24412477  0.07867502  0.55439769    -0.80500
C337        C  0.09162433  0.05680230  0.65218968     0.87700
O338        O  0.18125015  0.08745178  0.58834748    -0.87700
O339        O  0.17452982  0.13552292  0.64919354    -0.87800
O340        O  0.23192909  0.16085666  0.64182869    -0.74800
Mg341      Mg  0.09887812  0.04221704  0.74064359     1.58000
O342        O  0.09384591  0.12309202  0.73880609    -0.82200
H343        H  0.12786713  0.97859575  0.66685443    -0.05900
O344        O  0.22814835  0.08956138  0.65511573    -0.87500
H345        H  0.27038832  0.13029139  0.68425562    -0.05700
H346        H  0.14949115  0.05082351  0.54507450    -0.05900
C347        C  0.24486077  0.10611299  0.68767252     0.87600
C348        C  0.13175627  0.00144210  0.68520798     0.88200
C349        C  0.16598347  0.05672817  0.57309774     0.88300
H350        H  0.20885577  0.18350800  0.67485719    -0.05900
O351        O  0.16821420  0.13101076  0.74979320    -0.74900
Mg352      Mg  0.23790926  0.12083339  0.59936270     1.58000
H353        H  0.18677514  0.11187756  0.79552324    -0.05900
C354        C  0.22103599  0.51017070  0.72859410     0.93300
O355        O  0.24310492  0.03975348  0.60088771    -0.82100
C356        C  0.24660845  0.05108067  0.56332349     0.93300
O357        O  0.08562003  0.00009409  0.79433271    -0.82100
Mg358      Mg  0.13466057  0.12932925  0.69281379     1.58200
O359        O  0.23550186  0.53497628  0.70182137    -0.80500
O360        O  0.12819930  0.14780187  0.57888543    -0.82200
C361        C  0.11352288  0.18906755  0.85210967     0.02900
C362        C  0.08128452  0.18989552  0.85221717     0.02800
C363        C  0.05181673  0.16170439  0.83018108    -0.17700
C364        C  0.05278381  0.13340781  0.80925490     0.02900
C365        C  0.08432095  0.13288292  0.80878133     0.02800
C366        C  0.11415753  0.16098071  0.82949903    -0.17700
H367        H  0.13868618  0.16081609  0.82830145     0.04900
H368        H  0.02720587  0.16174110  0.82911948     0.04900
C369        C  0.11382341  0.41408155  0.85449399     0.02900
C370        C  0.07962413  0.38350700  0.85173237     0.02800
C371        C  0.05131835  0.38639793  0.83357483    -0.17700
C372        C  0.05606738  0.41897191  0.81645553     0.02900
C373        C  0.09131358  0.44966683  0.81857149     0.02800
C374        C  0.11874944  0.44629085  0.83820587    -0.17700
H375        H  0.14497246  0.46986513  0.84183983     0.04900
H376        H  0.02506555  0.36266559  0.83260197     0.04900
O377        O  0.46354632  0.13848453  0.64964349    -0.87700
C378        C  0.40044113  0.06279706  0.56792212     0.88300
Mg379      Mg  0.49671630  0.13344150  0.69534266     1.58100
O380        O  0.36506230  0.08563421  0.65184939    -0.87500
O381        O  0.43057609  0.16227589  0.64246202    -0.74800
C382        C  0.38667568  0.47874321  0.79353363     0.93300
O383        O  0.47059030  0.07432164  0.61336002    -0.74600
O384        O  0.42053389  0.99379296  0.79047818    -0.82100
Mg385      Mg  0.46724066  0.12198291  0.58521450     1.58000
C386        C  0.29726629  0.49695411  0.72084715     0.93300
O387        O  0.46711107  0.17065223  0.55797766    -0.80400
H388        H  0.36065609  0.12285489  0.68403512    -0.05700
C389        C  0.37890753  0.99920433  0.67999401     0.88200
O390        O  0.46222771  0.12817111  0.75132449    -0.74900
O391        O  0.41282894  0.09282612  0.58439191    -0.87700
O392        O  0.30297922  0.51947427  0.69203312    -0.80500
C393        C  0.31076164  0.04813940  0.55912145     0.93400
C394        C  0.45104847  0.18609639  0.54412298     0.93200
Mg395      Mg  0.37040850  0.04157580  0.75044625     1.58000
O396        O  0.37164977  0.49484065  0.77878866    -0.80400
O397        O  0.36621603  0.08844022  0.72207045    -0.74600
O398        O  0.33827311  0.07944637  0.55300230    -0.80500
O399        O  0.02611131  0.15369876  0.57912436    -0.82200
O400        O  0.49784484  0.08282520  0.78278700    -0.80500
C401        C  0.36352315  0.09962755  0.68560519     0.87700
O402        O  0.42464578  0.07057575  0.75099813    -0.87700
O403        O  0.37390693  0.02429532  0.68671126    -0.87800
O404        O  0.40615127  0.99976950  0.69443232    -0.74800
Mg405      Mg  0.38621892  0.12170980  0.59826557     1.58000
O406        O  0.30556716  0.03083232  0.59314588    -0.82200
H407        H  0.47637792  0.18544508  0.67678593    -0.05900
O408        O  0.47167224  0.07653246  0.68371119    -0.87500
H409        H  0.47539175  0.03914595  0.65091759    -0.05700
H410        H  0.42595825  0.10286248  0.79724004    -0.05900
C411        C  0.47295944  0.06264683  0.64970354     0.87600
C412        C  0.45793985  0.16309111  0.65696441     0.88200
C413        C  0.43745504  0.10030163  0.76830244     0.88300
H414        H  0.36005614  0.97665945  0.66071100    -0.05900
O415        O  0.37612696  0.03488490  0.58545832    -0.74900
Mg416      Mg  0.45065236  0.04077889  0.73789697     1.58000
H417        H  0.41212082  0.06003074  0.53926639    -0.05900
C418        C  0.03862152  0.16561761  0.61532206     0.93300
O419        O  0.03195772  0.13033457  0.74168024    -0.82100
C420        C  0.52577651  0.11359264  0.77635152     0.93300
O421        O  0.41707781  0.16981278  0.54708621    -0.82100
Mg422      Mg  0.34073212  0.02876604  0.64071454     1.58200
O423        O  0.03377005  0.14295787  0.64356968    -0.80500
O424        O  0.31188043  0.50862897  0.75632257    -0.82200
O425        O  0.47335587  0.34693846  0.68988674    -0.87700
C426        C  0.43849839  0.41504871  0.69675519     0.88300
Mg427      Mg  0.47474626  0.31948809  0.63323518     1.58100
O428        O  0.39098934  0.33006540  0.74292338    -0.87500
O429        O  0.46399029  0.33888192  0.75788015    -0.74800
C430        C  0.30956588  0.24861342  0.55137708     0.93300
O431        O  0.46813120  0.39223782  0.61837087    -0.74600
O432        O  0.33858878  0.25392453  0.53488367    -0.82100
Mg433      Mg  0.49677631  0.40445860  0.68489869     1.58000
C434        C  0.28733838  0.27552973  0.70868947     0.93300
O435        O  0.02754247  0.41435561  0.74965385    -0.80400
H436        H  0.38971802  0.29264238  0.78096828    -0.05700
C437        C  0.35831799  0.33088217  0.61849878     0.88200
O438        O  0.42871076  0.26553051  0.65490552    -0.74900
O439        O  0.45187002  0.39941949  0.71464922    -0.87700
O440        O  0.31364268  0.29386432  0.73284928    -0.80500
C441        C  0.37616032  0.39728363  0.79250131     0.93400
C442        C  0.52553635  0.41621983  0.78990017     0.93200
Mg443      Mg  0.33694067  0.26041339  0.65716578     1.58000
O444        O  0.30742617  0.25085806  0.59154216    -0.80400
O445        O  0.36422324  0.27209381  0.72460076    -0.74600
O446        O  0.40802752  0.40362836  0.79912767    -0.80500
O447        O  0.04653683  0.41329871  0.65624071    -0.82200
O448        O  0.42555145  0.26052789  0.54319937    -0.80500
C449        C  0.38190858  0.29831602  0.75076863     0.87700
O450        O  0.38216092  0.26505399  0.62836538    -0.87700
O451        O  0.36072646  0.31788534  0.65219099    -0.87800
O452        O  0.36945505  0.32523693  0.58412828    -0.74800
Mg453      Mg  0.43852563  0.37200477  0.77480765     1.58000
O454        O  0.35606642  0.37516246  0.76414962    -0.82200
H455        H  0.48664211  0.31657242  0.72353616    -0.05900
O456        O  0.44217225  0.33430054  0.59984946    -0.87500
H457        H  0.44177072  0.37130772  0.56258452    -0.05700
H458        H  0.37870952  0.22266607  0.65776035    -0.05900
C459        C  0.45039700  0.36589066  0.59236635     0.87600
C460        C  0.47530396  0.33349624  0.72348502     0.88200
C461        C  0.39571467  0.24970285  0.64659562     0.88300
H462        H  0.34663129  0.34749155  0.61831076    -0.05900
O463        O  0.40562777  0.39927703  0.68788590    -0.74900
Mg464      Mg  0.39534841  0.29229092  0.56772585     1.58000
H465        H  0.45560691  0.44225360  0.68616772    -0.05900
C466        C  0.04530603  0.39026630  0.63089421     0.93300
O467        O  0.47769712  0.28913814  0.57747819    -0.82100
C468        C  0.45737910  0.26675153  0.54937497     0.93300
O469        O  0.49638967  0.41045951  0.80677313    -0.82100
Mg470      Mg  0.35903749  0.34537238  0.70861080     1.58200
O471        O  0.01830882  0.37187062  0.60789487    -0.80500
O472        O  0.28698034  0.25260842  0.68387609    -0.82200
C473        C  0.30554434  0.42200726  0.85917230     0.02900
C474        C  0.30029501  0.38717152  0.85992141     0.02800
C475        C  0.32675961  0.38237782  0.84077130    -0.17700
C476        C  0.35773407  0.41056698  0.82045934     0.02900
C477        C  0.36220140  0.44580222  0.81969653     0.02800
C478        C  0.33616657  0.44986939  0.84050475    -0.17700
H479        H  0.33963680  0.47647143  0.84232804     0.04900
H480        H  0.32298473  0.35567098  0.84133060     0.04900
C481        C  0.03149689  0.28178040  0.47667195     0.02900
C482        C  0.03046358  0.24911490  0.47745746     0.02800
C483        C  0.00205061  0.21947771  0.49725294    -0.17700
C484        C  0.47458052  0.22056221  0.51958612     0.02900
C485        C  0.47586773  0.25458420  0.51967508     0.02800
C486        C  0.00423399  0.28397215  0.49724152    -0.17700
H487        H  0.00508195  0.30934576  0.49587827     0.04900
H488        H  0.00100145  0.19405980  0.49416223     0.04900
C489        C  0.25549229  0.28033382  0.48550751     0.02900
C490        C  0.21976381  0.24996282  0.48862425     0.02800
C491        C  0.21583114  0.22013292  0.51155550    -0.17700
C492        C  0.24393160  0.21569407  0.52643413     0.02900
C493        C  0.27907214  0.24536378  0.52446191     0.02800
C494        C  0.28363667  0.27694578  0.50469420    -0.17700
H495        H  0.31029942  0.30004584  0.50490424     0.04900
H496        H  0.18907412  0.19763598  0.51479062     0.04900
C497        C  0.21979451  0.47076398  0.48977333     0.02900
C498        C  0.25229734  0.47148445  0.48458080     0.02800
C499        C  0.28295453  0.00044559  0.50412299    -0.17700
C500        C  0.28270137  0.02861554  0.52693240     0.02900
C501        C  0.25090081  0.02857899  0.53050942     0.02800
C502        C  0.22004438  0.99919587  0.51298604    -0.17700
H503        H  0.19528219  0.99836962  0.51774088     0.04900
H504        H  0.30778986  0.00104841  0.50176245     0.04900
C505        C  0.46297051  0.47564780  0.00643703     0.02900
C506        C  0.48845942  0.46702247  0.01493180     0.02900
C507        C  0.02388851  0.99159689  0.00545515     0.02900
C508        C  0.03318952  0.02364849  0.98505770     0.02900
C509        C  0.50736987  0.03176960  0.97539238     0.02900
C510        C  0.47203405  0.00740321  0.98601702     0.02900
C511        C  0.30789883  0.15904928  0.33679509     0.02900
C512        C  0.32900895  0.14587719  0.32142339     0.02900
C513        C  0.36160350  0.17025204  0.30393567     0.02900
C514        C  0.37064750  0.20621217  0.29551860     0.02900
C515        C  0.34644313  0.21790605  0.30260622     0.02900
C516        C  0.31578932  0.19269454  0.32386123     0.02900
C517        C  0.13148095  0.30618949  0.65054728     0.02900
C518        C  0.13855392  0.33997155  0.66276845     0.02900
C519        C  0.17124269  0.36471063  0.68103959     0.02900
C520        C  0.19775969  0.35608593  0.68583448     0.02900
C521        C  0.19083484  0.32227373  0.67341865     0.02900
C522        C  0.15815696  0.29770834  0.65460293     0.02900
C523        C  0.08689837  0.37302344  0.60447240     0.24200
C524        C  0.06941428  0.37779733  0.63823819    -0.23900
C525        C  0.07299582  0.36816015  0.67962732     0.19100
C526        C  0.09404469  0.35373651  0.68720886     0.24100
C527        C  0.11279279  0.35048813  0.65385861    -0.23900
C528        C  0.10936764  0.36014122  0.61249390     0.19000
F529        F  0.12863230  0.35814970  0.58046082    -0.13800
F530        F  0.08302720  0.38186274  0.56436249    -0.16200
F531        F  0.09653810  0.34336980  0.72700256    -0.16200
F532        F  0.05552132  0.37199723  0.71249064    -0.13800
C533        C  0.24587704  0.29383587  0.73395041     0.24200
C534        C  0.26226639  0.28696285  0.70056237    -0.23900
C535        C  0.25622815  0.29303060  0.65837634     0.19100
C536        C  0.23402069  0.30599606  0.64968220     0.24100
C537        C  0.21663221  0.31162371  0.68285592    -0.23900
C538        C  0.22228153  0.30524448  0.72498348     0.19000
F539        F  0.20412719  0.30901014  0.75705836    -0.13800
F540        F  0.25196261  0.28854415  0.77480266    -0.16200
F541        F  0.22936707  0.31296360  0.60898390    -0.16200
F542        F  0.27271286  0.28748984  0.62566309    -0.13800
C543        C  0.24053521  0.39787047  0.73945378     0.24200
C544        C  0.23383557  0.38487110  0.69765881    -0.23900
C545        C  0.25490556  0.40702063  0.66492128     0.19100
C546        C  0.27678813  0.44371931  0.67231315     0.24100
C547        C  0.27892735  0.45802938  0.71303296    -0.23900
C548        C  0.26282142  0.43443158  0.74713908     0.19000
F549        F  0.26487819  0.44710430  0.78712338    -0.13800
F550        F  0.22088342  0.37653910  0.77166312    -0.16200
F551        F  0.29319821  0.46515291  0.63891466    -0.16200
F552        F  0.24949078  0.39427457  0.62446755    -0.13800
C553        C  0.05590857  0.21743263  0.66584137     0.24200
C554        C  0.05253428  0.20401126  0.62427691    -0.23900
C555        C  0.06511251  0.22847590  0.59034597     0.19100
C556        C  0.08633570  0.26509828  0.59852127     0.24100
C557        C  0.09503581  0.27728269  0.64045293    -0.23900
C558        C  0.07610968  0.25421992  0.67360148     0.19000
F559        F  0.08303414  0.26639684  0.71433935    -0.13800
F560        F  0.04347207  0.19546180  0.69958462    -0.16200
F561        F  0.10338860  0.28751712  0.56593652    -0.16200
F562        F  0.06142447  0.21696934  0.54950985    -0.13800
C563        C  0.12288957  0.19971555  0.66344518     0.24200
C564        C  0.12382051  0.18973149  0.62127570    -0.23900
C565        C  0.13766610  0.21635429  0.58986452     0.19100
C566        C  0.15062343  0.25209349  0.60088639     0.24100
C567        C  0.15007883  0.26149678  0.64329593    -0.23900
C568        C  0.13695744  0.23537205  0.67455869     0.19000
F569        F  0.13558142  0.24422497  0.71554766    -0.13800
F570        F  0.10751053  0.17510777  0.69404893    -0.16200
F571        F  0.16251000  0.27731627  0.57014589    -0.16200
F572        F  0.13782394  0.20775900  0.54847424    -0.13800
C573        C  0.19009896  0.44505084  0.74634094     0.24200
C574        C  0.20811141  0.47262495  0.71669202    -0.23900
C575        C  0.21098403  0.46349468  0.67474190     0.19100
C576        C  0.19532041  0.42790332  0.66221692     0.24100
C577        C  0.17910639  0.40091014  0.69222523    -0.23900
C578        C  0.17592507  0.40938409  0.73419172     0.19000
F579        F  0.16105664  0.38334166  0.76384300    -0.13800
F580        F  0.18751846  0.45257334  0.78744896    -0.16200
F581        F  0.19868814  0.41983517  0.62153892    -0.16200
F582        F  0.23088698  0.48875618  0.64631811    -0.13800
C583        C  0.99200575  0.09654338  0.92399076     0.24200
C584        C  0.48875054  0.11160914  0.96187760    -0.23900
C585        C  0.50691005  0.11168719  0.99855860     0.19100
C586        C  0.52219738  0.09077499  0.99973789     0.24100
C587        C  0.51749790  0.06860373  0.96489025    -0.23900
C588        C  0.00685169  0.07498108  0.92542431     0.19000
F589        F  0.00436640  0.05507308  0.89086582    -0.13800
F590        F  0.97663591  0.09864276  0.88745045    -0.16200
F591        F  0.53440949  0.08624689  0.03745806    -0.16200
F592        F  0.50696909  0.12921482  0.03427917    -0.13800
C593        C  0.49955080  0.39951358  0.06699805     0.24200
C594        C  0.00510496  0.38572645  0.02983686    -0.23900
C595        C  0.98990907  0.38767485  0.99152161     0.19100
C596        C  0.97545923  0.40929327  0.98909066     0.24100
C597        C  0.97784897  0.42989031  0.02458723    -0.23900
C598        C  0.48545967  0.42167348  0.06420700     0.19000
F599        F  0.48543577  0.44002259  0.09908802    -0.13800
F600        F  0.51188200  0.39550085  0.10493996    -0.16200
F601        F  0.96643567  0.41605082  0.95042703    -0.16200
F602        F  0.99211075  0.37150991  0.95575046    -0.13800
C603        C  0.12834008  0.08972437  0.00543896     0.24200
C604        C  0.14172381  0.09567708  0.96421364    -0.23900
C605        C  0.11913983  0.07951053  0.92914582     0.19100
C606        C  0.08323238  0.05604158  0.93567225     0.24100
C607        C  0.07024961  0.04966647  0.97711035    -0.23900
C608        C  0.09270378  0.06710812  0.01176112     0.19000
F609        F  0.08001186  0.06229004  0.05172686    -0.13800
F610        F  0.14958142  0.10691318  0.03952257    -0.16200
F611        F  0.06127925  0.03919098  0.90203456    -0.16200
F612        F  0.13193975  0.08603273  0.88913047    -0.13800
C613        C  0.41619899  0.44833720  0.06071418     0.24200
C614        C  0.42647262  0.45102378  0.01826597    -0.23900
C615        C  0.40173791  0.43193430  0.98621935     0.19100
C616        C  0.36646666  0.41138441  0.99601964     0.24100
C617        C  0.35583955  0.40829036  0.03836302    -0.23900
C618        C  0.38073677  0.42634995  0.07090515     0.19000
F619        F  0.37058354  0.42328342  0.11193404    -0.13800
F620        F  0.44031741  0.46745618  0.09175035    -0.16200
F621        F  0.34283358  0.39361043  0.96416195    -0.16200
F622        F  0.41185858  0.43337838  0.94541692    -0.13800
C623        C  0.41332879  0.04311494  0.00952813     0.24200
C624        C  0.39859991  0.04133179  0.96915456    -0.23900
C625        C  0.40558967  0.52540174  0.93468866     0.19100
C626        C  0.42870459  0.51294645  0.94026022     0.24100
C627        C  0.44513448  0.01707069  0.98028849    -0.23900
C628        C  0.43675989  0.03130070  0.01488476     0.19000
F629        F  0.45228490  0.03482723  0.05345052    -0.13800
F630        F  0.40514859  0.05631337  0.04383776    -0.16200
F631        F  0.43608959  0.49814579  0.90692528    -0.16200
F632        F  0.39097710  0.52292440  0.89580171    -0.13800
C633        C  0.08449722  0.95700778  0.98823790     0.24200
C634        C  0.09624739  0.45740122  0.03033785    -0.23900
C635        C  0.08648631  0.47191398  0.06346345     0.19100
C636        C  0.06369788  0.48433502  0.05520019     0.24100
C637        C  0.05077409  0.48222382  0.01385439    -0.23900
C638        C  0.06189627  0.96954080  0.98012390     0.19000
F639        F  0.04958548  0.96786038  0.93999665    -0.13800
F640        F  0.09479374  0.94447096  0.95525174    -0.16200
F641        F  0.05308377  0.49704959  0.08762359    -0.16200
F642        F  0.09790796  0.47275684  0.10383802    -0.13800
C643        C  0.31662406  0.05357119  0.33529176     0.24200
C644        C  0.29371630  0.03472751  0.30128884    -0.23900
C645        C  0.28174451  0.05199383  0.27454389     0.19100
C646        C  0.29227700  0.08783828  0.28232555     0.24100
C647        C  0.31542886  0.10689982  0.31638105    -0.23900
C648        C  0.32825694  0.08952077  0.34197703     0.19000
F649        F  0.35272158  0.10725227  0.37302155    -0.13800
F650        F  0.33001681  0.03794134  0.36030197    -0.16200
F651        F  0.28203905  0.10464945  0.25471222    -0.16200
F652        F  0.26091510  0.03454224  0.24028609    -0.13800
C653        C  0.40116746  0.31434401  0.32384676     0.24200
C654        C  0.37718706  0.31466369  0.35253676    -0.23900
C655        C  0.34107469  0.29087975  0.34496274     0.19100
C656        C  0.33057199  0.26597674  0.31205541     0.24100
C657        C  0.35457494  0.25657980  0.29653524    -0.23900
C658        C  0.38955509  0.28600949  0.29471664     0.19000
F659        F  0.41006360  0.29064602  0.26083852    -0.13800
F660        F  0.43482824  0.34231571  0.32214247    -0.16200
F661        F  0.29810745  0.25285672  0.29386457    -0.16200
F662        F  0.31619513  0.29332803  0.36704992    -0.13800
C663        C  0.21939245  0.11560274  0.39570320     0.24200
C664        C  0.21536996  0.08227552  0.39652075    -0.23900
C665        C  0.24596189  0.08133052  0.40094633     0.19100
C666        C  0.27702090  0.11213971  0.39062385     0.24100
C667        C  0.27546523  0.13767369  0.36419422    -0.23900
C668        C  0.24424966  0.14377536  0.36650197     0.19000
F669        F  0.23584686  0.18672598  0.33194550    -0.13800
F670        F  0.20672585  0.12289610  0.43108598    -0.16200
F671        F  0.30806118  0.11746148  0.40614066    -0.16200
F672        F  0.24588799  0.05178412  0.41489404    -0.13800
C673        C  0.46572223  0.26591269  0.31967870     0.24200
C674        C  0.48061958  0.27031988  0.27944555    -0.23900
C675        C  0.45849277  0.25523026  0.24337269     0.19100
C676        C  0.42203310  0.23556089  0.24789928     0.24100
C677        C  0.40771846  0.23172565  0.28824380    -0.23900
C678        C  0.42950000  0.24765543  0.32382083     0.19000
F679        F  0.41542668  0.24394901  0.36293025    -0.13800
F680        F  0.48579827  0.27922476  0.35519676    -0.16200
F681        F  0.40068260  0.22030750  0.21337045    -0.16200
F682        F  0.47215453  0.25916250  0.20398936    -0.13800
C683        C  0.24867924  0.15688870  0.29349985     0.24200
C684        C  0.28491273  0.19335311  0.32620202    -0.23900
C685        C  0.27491038  0.20603254  0.37831356     0.19100
C686        C  0.22872037  0.18380068  0.39638263     0.24100
C687        C  0.19229979  0.14808650  0.36273920    -0.23900
C688        C  0.20300317  0.13407657  0.31241403     0.19000
F689        F  0.17895871  0.10306695  0.29351340    -0.13800
F690        F  0.25620514  0.14527590  0.25753436    -0.16200
F691        F  0.22184731  0.19157942  0.43515750    -0.16200
F692        F  0.30156851  0.22762565  0.40550102    -0.13800
C693        C  0.44744673  0.18101022  0.33258902     0.24200
C694        C  0.46053452  0.18363807  0.29157909    -0.23900
C695        C  0.43630199  0.16820869  0.25722010     0.19100
C696        C  0.40067955  0.15640039  0.26282242     0.24100
C697        C  0.38949920  0.16106556  0.30231036    -0.23900
C698        C  0.41201271  0.16997013  0.33791013     0.19000
F699        F  0.40143198  0.17445261  0.37655528    -0.13800
F700        F  0.46934948  0.19301399  0.36693904    -0.16200
F701        F  0.37874417  0.14667752  0.22843645    -0.16200
F702        F  0.44754901  0.16890116  0.21722132    -0.13800
O703        O  0.02739424  0.65498316  0.31195752    -0.87700
C704        C  0.10599188  0.67592943  0.23145874     0.88300
Mg705      Mg  0.03039946  0.69068590  0.36162549     1.58100
O706        O  0.07745215  0.61087534  0.31091966    -0.87500
O707        O  0.00303994  0.59777169  0.29726897    -0.74800
C708        C  0.18611302  0.74016612  0.46273844     0.93300
O709        O  0.08921977  0.73110847  0.28286882    -0.74600
O710        O  0.17099053  0.75892252  0.46001707    -0.82100
Mg711      Mg  0.04381095  0.67983574  0.24968064     1.58000
C712        C  0.15774679  0.62636978  0.37940974     0.93300
O713        O  0.49709930  0.62973096  0.21802263    -0.80400
H714        H  0.03782722  0.56989430  0.34169566    -0.05700
C715        C  0.16265461  0.71241313  0.34810907     0.88200
O716        O  0.03486893  0.65828539  0.41526041    -0.74900
O717        O  0.07526149  0.65565533  0.24577392    -0.87700
O718        O  0.13201587  0.60889400  0.35470930    -0.80500
C719        C  0.11915984  0.59753965  0.21868964     0.93400
C720        C  0.48233492  0.59852470  0.20119046     0.93200
Mg721      Mg  0.12167130  0.65835002  0.41558201     1.58000
O722        O  0.17002967  0.70819436  0.44728243    -0.80400
O723        O  0.07376040  0.60861368  0.38161139    -0.74600
O724        O  0.08780423  0.59182909  0.21042975    -0.80500
O725        O  0.50997900  0.70287701  0.24745707    -0.82200
O726        O  0.08192581  0.74823413  0.45161219    -0.80500
C727        C  0.06222390  0.59551095  0.34431065     0.87700
O728        O  0.09277065  0.68441085  0.42033024    -0.87700
O729        O  0.13743202  0.68151846  0.35286433    -0.87800
O730        O  0.16282864  0.73930861  0.36423109    -0.74800
Mg731      Mg  0.04435864  0.59601763  0.25470019     1.58000
O732        O  0.13466150  0.61076274  0.25361457    -0.82200
H733        H  0.97969781  0.61837269  0.33347827    -0.05900
O734        O  0.08695093  0.72686788  0.35313359    -0.87500
H735        H  0.12326132  0.77077561  0.32314404    -0.05700
H736        H  0.05971954  0.64854049  0.46322897    -0.05900
C737        C  0.10045646  0.74397497  0.32015965     0.87600
C738        C  0.00242250  0.62373415  0.31502486     0.88200
C739        C  0.06235566  0.66379955  0.43507311     0.88300
H740        H  0.18480028  0.71665031  0.32922731    -0.05900
O741        O  0.13298068  0.67925352  0.25056508    -0.74900
Mg742      Mg  0.12331504  0.74295010  0.40755293     1.58000
H743        H  0.10939125  0.69218088  0.20401694    -0.05900
C744        C  0.49918375  0.70464818  0.28344842     0.93300
O745        O  0.03156011  0.72550041  0.41282510    -0.82100
C746        C  0.04985459  0.74107766  0.44577360     0.93300
O747        O  0.99837713  0.58064800  0.20181906    -0.82100
Mg748      Mg  0.13347552  0.64453568  0.30437811     1.58200
O749        O  0.52204850  0.72166598  0.31230635    -0.80500
O750        O  0.15247348  0.63107704  0.41711077    -0.82200
C751        C  0.13990304  0.55686064  0.19326413     0.02900
C752        C  0.14042051  0.58940203  0.18892151     0.02800
C753        C  0.16966199  0.61809987  0.16706557    -0.17700
C754        C  0.19665539  0.61419219  0.14716185     0.02900
C755        C  0.19303063  0.57964362  0.14918181     0.02800
C756        C  0.16529287  0.55239528  0.17255957    -0.17700
H757        H  0.16377962  0.52672351  0.17546043     0.04900
H758        H  0.17166281  0.64400211  0.16604191     0.04900
C759        C  0.41350306  0.55507041  0.18276537     0.02900
C760        C  0.44761543  0.58737804  0.17807946     0.02800
C761        C  0.44803579  0.61637466  0.15666705    -0.17700
C762        C  0.41736667  0.61618107  0.14299205     0.02900
C763        C  0.38417955  0.58498777  0.14679619     0.02800
C764        C  0.38299023  0.55497388  0.16568312    -0.17700
H765        H  0.35728915  0.53052070  0.16646206     0.04900
H766        H  0.47327499  0.64070044  0.15134238     0.04900
O767        O  0.14860069  0.96581598  0.35465363    -0.87700
C768        C  0.06802446  0.90010601  0.43179371     0.88300
Mg769      Mg  0.14596218  0.00252288  0.30994768     1.58100
O770        O  0.09624657  0.86502030  0.35167664    -0.87500
O771        O  0.16950696  0.93049507  0.36686683    -0.74800
C772        C  0.49124499  0.88822589  0.21248135     0.93300
O773        O  0.08884823  0.98005431  0.39020133    -0.74600
O774        O  0.00643458  0.92227548  0.21804270    -0.82100
Mg775      Mg  0.13152711  0.96942654  0.41711701     1.58000
C776        C  0.51838911  0.79525266  0.27387431     0.93300
O777        O  0.17365621  0.96456479  0.44795117    -0.80400
H778        H  0.13631192  0.86534514  0.32188218    -0.05700
C779        C  0.01486168  0.88126821  0.32428771     0.88200
O780        O  0.13937762  0.96695419  0.25351133    -0.74900
O781        O  0.09787287  0.91362095  0.41649534    -0.87700
O782        O  0.54031026  0.80408920  0.30429271    -0.80500
C783        C  0.05311165  0.80852453  0.44386099     0.93400
C784        C  0.18640004  0.94753690  0.46519566     0.93200
Mg785      Mg  0.05633545  0.87322309  0.24990974     1.58000
O786        O  0.50719191  0.87184968  0.22321546    -0.80400
O787        O  0.10335499  0.87109109  0.28155266    -0.74600
O788        O  0.08179555  0.83842653  0.45260061    -0.80500
O789        O  0.17266832  0.52610888  0.42043926    -0.82200
O790        O  0.09166317  0.00303598  0.22357835    -0.80500
C791        C  0.11258022  0.86670620  0.31875920     0.87700
O792        O  0.08275838  0.92847304  0.25251624    -0.87700
O793        O  0.03976380  0.87601415  0.31565131    -0.87800
O794        O  0.01525410  0.90923530  0.31202115    -0.74800
Mg795      Mg  0.12658246  0.88549436  0.40872530     1.58000
O796        O  0.04158162  0.79991706  0.40606104    -0.82200
H797        H  0.19496535  0.97579640  0.33157499    -0.05900
O798        O  0.09039564  0.97852455  0.32068434    -0.87500
H799        H  0.05765773  0.98966541  0.35137734    -0.05700
H800        H  0.11432834  0.93048035  0.20624395    -0.05900
C801        C  0.07832663  0.98331232  0.35366794     0.87600
C802        C  0.17196855  0.95832926  0.35011527     0.88200
C803        C  0.11189155  0.94190743  0.23559859     0.88300
H804        H  0.99402107  0.86252543  0.34457284    -0.05900
O805        O  0.04198476  0.87197628  0.41559828    -0.74900
Mg806      Mg  0.05345603  0.95452062  0.26832948     1.58000
H807        H  0.06393522  0.91268770  0.45899449    -0.05900
C808        C  0.18031726  0.55020036  0.39368972     0.93300
O809        O  0.14163139  0.53798170  0.26148825    -0.82100
C810        C  0.12223450  0.03174698  0.22850304     0.93300
O811        O  0.16887701  0.91322339  0.46430946    -0.82100
Mg812      Mg  0.04093502  0.83767947  0.35928063     1.58200
O813        O  0.16004135  0.54528527  0.36209367    -0.80500
O814        O  0.52730931  0.81406586  0.24107774    -0.82200
O815        O  0.32895007  0.86696614  0.35194058    -0.87700
C816        C  0.34064447  0.93976264  0.43915392     0.88300
Mg817      Mg  0.37187340  0.87453632  0.30904633     1.58100
O818        O  0.27842350  0.91514192  0.35699338    -0.87500
O819        O  0.27188188  0.84258462  0.36216597    -0.74800
C820        C  0.40448998  0.52193517  0.20825397     0.93300
O821        O  0.39834282  0.93023504  0.39017476    -0.74600
O822        O  0.42261196  0.00647349  0.20990243    -0.82100
Mg823      Mg  0.34774581  0.87892521  0.41727881     1.58000
C824        C  0.28854067  0.49979213  0.29047028     0.93300
O825        O  0.29870610  0.82898291  0.44532324    -0.80400
H826        H  0.23640060  0.87734599  0.32442821    -0.05700
C827        C  0.37879617  0.00229504  0.32504350     0.88200
O828        O  0.34015535  0.87484213  0.25065880    -0.74900
O829        O  0.32261398  0.90919187  0.42377685    -0.87700
O830        O  0.27529518  0.47508504  0.31738934    -0.80500
C831        C  0.25882753  0.95112454  0.45062751     0.93400
C832        C  0.26798085  0.81523363  0.46157155     0.93200
Mg833      Mg  0.32679032  0.96031535  0.25731769     1.58000
O834        O  0.37427438  0.50711775  0.22556890    -0.80400
O835        O  0.27603197  0.91279554  0.28671703    -0.74600
O836        O  0.25715803  0.92069827  0.45664208    -0.80500
O837        O  0.37126509  0.84223717  0.41395995    -0.82200
O838        O  0.41844934  0.92021659  0.21976752    -0.80500
C839        C  0.26252599  0.90102040  0.32309653     0.87700
O840        O  0.35276476  0.93046503  0.25263757    -0.87700
O841        O  0.34826672  0.97645330  0.32061926    -0.87800
O842        O  0.40485907  0.00287492  0.30717735    -0.74800
Mg843      Mg  0.26614513  0.87997540  0.40989691     1.58000
O844        O  0.27140958  0.96883066  0.41681394    -0.82200
H845        H  0.29267785  0.82304672  0.32022728    -0.05900
O846        O  0.39843627  0.93013934  0.31961482    -0.87500
H847        H  0.43705854  0.96970686  0.35468217    -0.05700
H848        H  0.32202697  0.89604947  0.20686239    -0.05900
C849        C  0.41223086  0.94440444  0.35446869     0.87600
C850        C  0.29789702  0.84350262  0.34360908     0.88200
C851        C  0.33776394  0.90053925  0.23527218     0.88300
H852        H  0.38344989  0.02494513  0.34437106    -0.05900
O853        O  0.34172238  0.96675790  0.42209189    -0.74900
Mg854      Mg  0.40990289  0.96255476  0.26394736     1.58000
H855        H  0.35710900  0.94383289  0.46673742    -0.05900
C856        C  0.38793407  0.84570347  0.38041286     0.93300
O857        O  0.41545696  0.88006146  0.26587893    -0.82100
C858        C  0.42190491  0.89305064  0.22887811     0.93300
O859        O  0.25145295  0.83258434  0.46030086    -0.82100
Mg860      Mg  0.30938275  0.97112129  0.36761691     1.58200
O861        O  0.40417153  0.87608162  0.36418025    -0.80500
O862        O  0.30491858  0.49739794  0.25923889    -0.82200
C863        C  0.42546789  0.86996684  0.19570926     0.02900
C864        C  0.45516529  0.86524411  0.19181043     0.02800
C865        C  0.45020582  0.83450183  0.16926482    -0.17700
C866        C  0.41833767  0.80884192  0.14863981     0.02900
C867        C  0.38867176  0.81380790  0.15209408     0.02800
C868        C  0.39320378  0.84384798  0.17603834    -0.17700
H869        H  0.37050932  0.84709488  0.17939094     0.04900
H870        H  0.47293414  0.83138002  0.16541778     0.04900
O871        O  0.30244297  0.01386962  0.02235391    -0.87700
C872        C  0.26900743  0.58304203  0.02504116     0.88300
Mg873      Mg  0.30384418  0.98656183  0.96729400     1.58100
O874        O  0.22212241  0.49710842  0.07240736    -0.87500
O875        O  0.29386817  0.00444645  0.09006410    -0.74800
C876        C  0.14285240  0.91625301  0.88241073     0.93300
O877        O  0.30009991  0.56029937  0.94879606    -0.74600
O878        O  0.17162453  0.92039921  0.86701798    -0.82100
Mg879      Mg  0.32762988  0.57127634  0.01574116     1.58000
C880        C  0.12008152  0.94449356  0.03815527     0.93300
O881        O  0.35503094  0.57893840  0.08118501    -0.80400
H882        H  0.22011458  0.95999318  0.11134674    -0.05700
C883        C  0.18858622  0.49787797  0.94866122     0.88200
O884        O  0.25825638  0.93271673  0.98904248    -0.74900
O885        O  0.28227784  0.56748105  0.04520455    -0.87700
O886        O  0.14654832  0.46198563  0.06256259    -0.80500
C887        C  0.20997212  0.56574160  0.12095717     0.93400
C888        C  0.35280126  0.58001220  0.12142631     0.93200
Mg889      Mg  0.16790749  0.92781208  0.98791555     1.58000
O890        O  0.13983167  0.91893150  0.92224852    -0.80400
O891        O  0.19461538  0.93891853  0.05518599    -0.74600
O892        O  0.24066706  0.57004212  0.12888145    -0.80500
O893        O  0.37685465  0.57793292  0.98930195    -0.82200
O894        O  0.25545951  0.92817229  0.87856926    -0.80500
C895        C  0.21251055  0.96539571  0.08084797     0.87700
O896        O  0.21263802  0.93231776  0.96011767    -0.87700
O897        O  0.19177353  0.48524666  0.98221548    -0.87800
O898        O  0.19974715  0.49251051  0.91422207    -0.74800
Mg899      Mg  0.26837677  0.53733241  0.10627971     1.58000
O900        O  0.18936853  0.54418628  0.09251446    -0.82200
H901        H  0.31788271  0.98442238  0.05426536    -0.05900
O902        O  0.27207670  0.50186166  0.93305571    -0.87500
H903        H  0.27314329  0.53839009  0.89355821    -0.05700
H904        H  0.20837681  0.88950483  0.98930612    -0.05900
C905        C  0.28141302  0.53343453  0.92387726     0.87600
C906        C  0.30554165  0.00041905  0.05528356     0.88200
C907        C  0.22565142  0.91673162  0.97889250     0.88300
H908        H  0.17627663  0.51391615  0.94870106    -0.05900
O909        O  0.23636470  0.56691783  0.01523867    -0.74900
Mg910      Mg  0.22627972  0.95987318  0.90008327     1.58000
H911        H  0.28628644  0.61001647  0.01385692    -0.05900
C912        C  0.37449227  0.55441542  0.96398084     0.93300
O913        O  0.30690716  0.95722443  0.91403626    -0.82100
C914        C  0.28707158  0.93486423  0.88607140     0.93300
O915        O  0.32415487  0.57451778  0.13895463    -0.82100
Mg916      Mg  0.19083224  0.51326527  0.03777369     1.58200
O917        O  0.34728342  0.03729825  0.94115889    -0.80500
O918        O  0.11831966  0.92036223  0.01433199    -0.82200
O919        O  0.20708176  0.69415334  0.02134571    -0.87700
C920        C  0.31035055  0.73412816  0.02887136     0.88300
Mg921      Mg  0.17854740  0.69165215  0.96475831     1.58100
O922        O  0.27188494  0.77865791  0.07624645    -0.87500
O923        O  0.20790125  0.70370776  0.08942434    -0.74800
C924        C  0.27266992  0.85738438  0.88696104     0.93300
O925        O  0.25831521  0.70117678  0.95025791    -0.74600
O926        O  0.24840225  0.82760356  0.87018729    -0.82100
Mg927      Mg  0.24129959  0.67249232  0.01593199     1.58000
C928        C  0.31915564  0.88337012  0.04775544     0.93300
O929        O  0.21958824  0.64179873  0.08009232    -0.80400
H930        H  0.23471333  0.77703627  0.11378055    -0.05700
C931        C  0.30661131  0.81312870  0.95472466     0.88200
O932        O  0.17008409  0.73665779  0.98733018    -0.74900
O933        O  0.28119537  0.71911017  0.04642258    -0.87700
O934        O  0.31117223  0.85651400  0.07042666    -0.80500
C935        C  0.35566650  0.79611544  0.12501060     0.93400
C936        C  0.22401654  0.64477106  0.12032966     0.93200
Mg937      Mg  0.25583668  0.83136500  0.99236175     1.58000
O938        O  0.27690453  0.86088498  0.92725429    -0.80400
O939        O  0.23954705  0.80299766  0.05848544    -0.74600
O940        O  0.32986216  0.76338594  0.12977036    -0.80500
O941        O  0.20020311  0.62139156  0.98536344    -0.82200
O942        O  0.16986969  0.74058417  0.87671915    -0.80500
C943        C  0.24849389  0.78594298  0.08407992     0.87700
O944        O  0.21623087  0.78472915  0.96178278    -0.87700
O945        O  0.29062443  0.81026060  0.98778141    -0.87800
O946        O  0.29020527  0.80075645  0.91977979    -0.74800
Mg947      Mg  0.26711244  0.73175275  0.10656699     1.58000
O948        O  0.35305618  0.81734471  0.09972788    -0.82200
H949        H  0.16276986  0.67849772  0.05381125    -0.05900
O950        O  0.22644870  0.72605742  0.93321182    -0.87500
H951        H  0.26346905  0.72772523  0.89537836    -0.05700
H952        H  0.17662695  0.78637803  0.98996788    -0.05900
C953        C  0.24964838  0.71862562  0.92503255     0.87600
C954        C  0.19128223  0.69137343  0.05455480     0.88200
C955        C  0.18700892  0.76999664  0.97914962     0.88300
H956        H  0.33513542  0.82616890  0.95566406    -0.05900
O957        O  0.32741359  0.76765525  0.02164655    -0.74900
Mg958      Mg  0.23120310  0.77214999  0.90195785     1.58000
H959        H  0.32070081  0.71791992  0.01732099    -0.05900
C960        C  0.17860632  0.62159604  0.95910426     0.93300
O961        O  0.14585965  0.68780292  0.90947380    -0.82100
C962        C  0.14408843  0.70814159  0.88215045     0.93300
O963        O  0.24838850  0.67460455  0.13728834    -0.82100
Mg964      Mg  0.31954151  0.81315228  0.04432394     1.58200
O965        O  0.18732311  0.64909694  0.93751553    -0.80500
O966        O  0.29635751  0.88306930  0.02307168    -0.82200
O967        O  0.49795740  0.79040316  0.97315180    -0.87700
C968        C  0.08538360  0.78218520  0.97478307     0.88300
Mg969      Mg  0.46942865  0.79739284  0.02945750     1.58100
O970        O  0.00208843  0.72316969  0.92569596    -0.87500
O971        O  0.50007359  0.79009077  0.90373784    -0.74800
C972        C  0.42212029  0.64604150  0.11624153     0.93300
O973        O  0.04864179  0.80534408  0.05002747    -0.74600
O974        O  0.42001259  0.67248213  0.13103416    -0.82100
Mg975      Mg  0.05609886  0.82896300  0.98139733     1.58000
C976        C  0.46802981  0.62860472  0.96310005     0.93300
O977        O  0.06380483  0.85316658  0.91565100    -0.80400
H978        H  0.46276795  0.71638207  0.88686134    -0.05700
C979        C  0.00562929  0.70210393  0.05601732     0.88200
O980        O  0.41775016  0.74720877  0.00981922    -0.74900
O981        O  0.06495249  0.78909921  0.95586624    -0.87700
O982        O  0.97580117  0.65364205  0.93881249    -0.80500
C983        C  0.07140781  0.71064288  0.88202035     0.93400
C984        C  0.07156001  0.85171231  0.87726096     0.93200
Mg985      Mg  0.43768363  0.66849700  0.01239558     1.58000
O986        O  0.42986888  0.64452483  0.07789763    -0.80400
O987        O  0.44523507  0.69221414  0.94380918    -0.74600
O988        O  0.07374936  0.74089377  0.87248276    -0.80500
O989        O  0.04637995  0.87346850  0.00006947    -0.82200
O990        O  0.42171057  0.75659733  0.12404871    -0.80500
C991        C  0.47004150  0.71095741  0.91755553     0.87700
O992        O  0.42847111  0.70818818  0.03822113    -0.87700
O993        O  0.99548711  0.70748706  0.02077377    -0.87800
O994        O  0.99361002  0.70698990  0.09009491    -0.74800
Mg995      Mg  0.03899337  0.76937051  0.89373275     1.58000
O996        O  0.05340919  0.69260634  0.91336613    -0.82200
H997        H  0.46917146  0.80430567  0.93583608    -0.05900
O998        O  0.49184529  0.77409587  0.06814898    -0.87500
H999        H  0.03122415  0.78127535  0.10705523    -0.05700
H1000       H  0.38194705  0.69368578  0.01021662    -0.05900
C1001       C  0.02388810  0.78657868  0.07632770     0.87600
C1002       C  0.48793997  0.79537725  0.93755376     0.88200
C1003       C  0.40799685  0.71522989  0.01966013     0.88300
H1004       H  0.02441654  0.69319192  0.05719600    -0.05900
O1005       O  0.07554744  0.75031112  0.98522627    -0.74900
Mg1006     Mg  0.45506128  0.72785912  0.10031691     1.58000
H1007       H  0.11142776  0.80379151  0.98413867    -0.05900
C1008       C  0.02615819  0.86906694  0.03022950     0.93300
O1009       O  0.44081342  0.80480760  0.08335866    -0.82100
C1010       C  0.42428008  0.78708030  0.11571825     0.93300
O1011       O  0.07350125  0.82511506  0.86250722    -0.82100
Mg1012     Mg  0.02403834  0.70013988  0.96535757     1.58200
O1013       O  0.51801733  0.84398104  0.05484106    -0.80500
O1014       O  0.44883909  0.62460070  0.99427842    -0.82200
O1015       O  0.16225858  0.52696174  0.69162969    -0.87700
C1016       C  0.17053618  0.60606512  0.76729054     0.88300
Mg1017     Mg  0.20210009  0.53340910  0.64725702     1.58100
O1018       O  0.10863849  0.57324440  0.68465096    -0.87500
O1019       O  0.10488951  0.50175096  0.69911011    -0.74800
C1020       C  0.23278889  0.67969512  0.54555808     0.93300
O1021       O  0.23281965  0.59612063  0.72497966    -0.74600
O1022       O  0.25156876  0.66493496  0.54676959    -0.82100
Mg1023     Mg  0.18293617  0.54814006  0.75478334     1.58000
C1024       C  0.11481539  0.65293060  0.61119651     0.93300
O1025       O  0.13523513  0.00032132  0.78348209    -0.80400
H1026       H  0.06603922  0.53283162  0.65562794    -0.05700
C1027       C  0.20505831  0.66094623  0.65594490     0.88200
O1028       O  0.16832572  0.53171568  0.59049093    -0.74900
O1029       O  0.15536954  0.57537131  0.75201992    -0.87700
O1030       O  0.10103263  0.62838346  0.63840638    -0.80500
C1031       C  0.08999087  0.61147057  0.77617078     0.93400
C1032       C  0.10383373  0.98487825  0.79739968     0.93200
Mg1033     Mg  0.15401811  0.61502314  0.58610255     1.58000
O1034       O  0.20148935  0.66272652  0.55930404    -0.80400
O1035       O  0.10365674  0.56694067  0.61483433    -0.74600
O1036       O  0.09250669  0.58397539  0.78503554    -0.80500
O1037       O  0.21022356  0.01651232  0.76240687    -0.82200
O1038       O  0.24417999  0.57870796  0.55438793    -0.80500
C1039       C  0.09167489  0.55686323  0.65216026     0.87700
O1040       O  0.18129330  0.58748387  0.58831658    -0.87700
O1041       O  0.17458308  0.63555581  0.64914939    -0.87800
O1042       O  0.23198456  0.66087040  0.64182464    -0.74800
Mg1043     Mg  0.09891982  0.54228205  0.74061473     1.58000
O1044       O  0.09400402  0.62326873  0.73881427    -0.82200
H1045       H  0.12787839  0.47859833  0.66689608    -0.05900
O1046       O  0.22817979  0.58955787  0.65510303    -0.87500
H1047       H  0.27044134  0.63026544  0.68423895    -0.05700
H1048       H  0.14951177  0.55085291  0.54506035    -0.05900
C1049       C  0.24490370  0.60610012  0.68765886     0.87600
C1050       C  0.13177626  0.50146217  0.68523075     0.88200
C1051       C  0.16600778  0.55675561  0.57307962     0.88300
H1052       H  0.20891169  0.68353385  0.67482661    -0.05900
O1053       O  0.16830555  0.63108017  0.74971539    -0.74900
Mg1054     Mg  0.23795918  0.62084937  0.59935891     1.58000
H1055       H  0.18686660  0.61196140  0.79546179    -0.05900
C1056       C  0.22113788  0.01023397  0.72862159     0.93300
O1057       O  0.24307951  0.53971289  0.60083110    -0.82100
C1058       C  0.24663209  0.55109106  0.56328438     0.93300
O1059       O  0.08564182  0.50017874  0.79432583    -0.82100
Mg1060     Mg  0.13473220  0.62939703  0.69275947     1.58200
O1061       O  0.23554285  0.03502434  0.70182359    -0.80500
O1062       O  0.12829167  0.64788965  0.57890363    -0.82200
C1063       C  0.11356115  0.68906906  0.85218500     0.02900
C1064       C  0.08133632  0.68991722  0.85227781     0.02800
C1065       C  0.05186924  0.66174214  0.83023112    -0.17700
C1066       C  0.05282768  0.63344640  0.80929270     0.02900
C1067       C  0.08436546  0.63292459  0.80879407     0.02800
C1068       C  0.11419654  0.66099544  0.82955005    -0.17700
H1069       H  0.13872169  0.66082364  0.82835633     0.04900
H1070       H  0.02726320  0.66178904  0.82917366     0.04900
C1071       C  0.11386261  0.91396940  0.85428946     0.02900
C1072       C  0.07963173  0.88343185  0.85167541     0.02800
C1073       C  0.05131378  0.88634316  0.83360710    -0.17700
C1074       C  0.05606843  0.91890997  0.81647009     0.02900
C1075       C  0.09133382  0.94957692  0.81846849     0.02800
C1076       C  0.11879723  0.94617071  0.83797003    -0.17700
H1077       H  0.14504275  0.96972471  0.84152226     0.04900
H1078       H  0.02504512  0.86263148  0.83272100     0.04900
O1079       O  0.46357542  0.63864730  0.64961060    -0.87700
C1080       C  0.40055830  0.56294776  0.56784963     0.88300
Mg1081     Mg  0.49670499  0.63362880  0.69539893     1.58100
O1082       O  0.36510666  0.58577953  0.65170818    -0.87500
O1083       O  0.43061173  0.66243543  0.64233216    -0.74800
C1084       C  0.38673564  0.97865480  0.79359287     0.93300
O1085       O  0.47067775  0.57450582  0.61340742    -0.74600
O1086       O  0.42047821  0.49388726  0.79044931    -0.82100
Mg1087     Mg  0.46734449  0.62215678  0.58520610     1.58000
C1088       C  0.29732564  0.99680544  0.72101837     0.93300
O1089       O  0.46724122  0.67082885  0.55790943    -0.80400
H1090       H  0.36067120  0.62298815  0.68388083    -0.05700
C1091       C  0.37893670  0.49935366  0.67994067     0.88200
O1092       O  0.46213424  0.62831433  0.75129942    -0.74900
O1093       O  0.41292524  0.59298575  0.58428964    -0.87700
O1094       O  0.30297098  0.01931131  0.69221083    -0.80500
C1095       C  0.31084712  0.54827282  0.55894980     0.93400
C1096       C  0.45118122  0.68626300  0.54401092     0.93200
Mg1097     Mg  0.37037843  0.54169361  0.75035670     1.58000
O1098       O  0.37170075  0.99474442  0.77885868    -0.80400
O1099       O  0.36620030  0.58856161  0.72193295    -0.74600
O1100       O  0.33835262  0.57958533  0.55282742    -0.80500
O1101       O  0.02604860  0.65388282  0.57924665    -0.82200
O1102       O  0.49785156  0.58292309  0.78282157    -0.80500
C1103       C  0.36353982  0.59976207  0.68545981     0.87700
O1104       O  0.42461780  0.57070262  0.75099682    -0.87700
O1105       O  0.37393202  0.52444285  0.68664092    -0.87800
O1106       O  0.40617368  0.49992171  0.69440642    -0.74800
Mg1107     Mg  0.38629166  0.62185788  0.59811322     1.58000
O1108       O  0.30566875  0.53096169  0.59296601    -0.82200
H1109       H  0.47638521  0.68561671  0.67670948    -0.05900
O1110       O  0.47171299  0.57671218  0.68375940    -0.87500
H1111       H  0.47546451  0.53933536  0.65098985    -0.05700
H1112       H  0.42585506  0.60298251  0.79719687    -0.05900
C1113       C  0.47302800  0.56283328  0.64976018     0.87600
C1114       C  0.45796347  0.66325600  0.65688542     0.88200
C1115       C  0.43738442  0.60043150  0.76828223     0.88300
H1116       H  0.36009554  0.47680904  0.66064898    -0.05900
O1117       O  0.37624411  0.53503787  0.58539240    -0.74900
Mg1118     Mg  0.45064829  0.54091702  0.73791039     1.58000
H1119       H  0.41225941  0.56017269  0.53921822    -0.05900
C1120       C  0.03853961  0.66583394  0.61544094     0.93300
O1121       O  0.03190683  0.63047496  0.74180961    -0.82100
C1122       C  0.52576335  0.61371984  0.77643749     0.93300
O1123       O  0.41720509  0.66997128  0.54693872    -0.82100
Mg1124     Mg  0.34079407  0.52891215  0.64059375     1.58200
O1125       O  0.03373946  0.64320029  0.64370564    -0.80500
O1126       O  0.31190418  0.00852314  0.75650081    -0.82200
O1127       O  0.47353131  0.84712011  0.68972948    -0.87700
C1128       C  0.43848903  0.91507712  0.69667173     0.88300
Mg1129     Mg  0.47493418  0.81968665  0.63308510     1.58100
O1130       O  0.39110531  0.83010149  0.74287352    -0.87500
O1131       O  0.46416279  0.83901848  0.75771805    -0.74800
C1132       C  0.30964805  0.74867654  0.55141322     0.93300
O1133       O  0.46823648  0.89240669  0.61823185    -0.74600
O1134       O  0.33867891  0.75403612  0.53488882    -0.82100
Mg1135     Mg  0.49686391  0.90462421  0.68476580     1.58000
C1136       C  0.28739335  0.77536333  0.70883055     0.93300
O1137       O  0.02751998  0.91429372  0.74971332    -0.80400
H1138       H  0.38991608  0.79272392  0.78092635    -0.05700
C1139       C  0.35835491  0.83091265  0.61853431     0.88200
O1140       O  0.42893031  0.76572159  0.65477506    -0.74900
O1141       O  0.45191658  0.89948991  0.71453987    -0.87700
O1142       O  0.31370880  0.79379503  0.73294509    -0.80500
C1143       C  0.37621681  0.89723140  0.79253857     0.93400
C1144       C  0.52561772  0.91632627  0.78976231     0.93200
Mg1145     Mg  0.33708814  0.76044096  0.65717131     1.58000
O1146       O  0.30751706  0.75088161  0.59158582    -0.80400
O1147       O  0.36440732  0.77213354  0.72457656    -0.74600
O1148       O  0.40810905  0.90363173  0.79909675    -0.80500
O1149       O  0.04653401  0.91322294  0.65637902    -0.82200
O1150       O  0.42569470  0.76069807  0.54309398    -0.80500
C1151       C  0.38207351  0.79836867  0.75073132     0.87700
O1152       O  0.38233870  0.76520351  0.62831257    -0.87700
O1153       O  0.36075596  0.81789226  0.65221292    -0.87800
O1154       O  0.36953784  0.82533009  0.58416006    -0.74800
Mg1155     Mg  0.43863615  0.87207108  0.77470586     1.58000
O1156       O  0.35610607  0.87509064  0.76421537    -0.82200
H1157       H  0.48689220  0.81680080  0.72335172    -0.05900
O1158       O  0.44231832  0.83446998  0.59972986    -0.87500
H1159       H  0.44189946  0.87145382  0.56243795    -0.05700
H1160       H  0.37894755  0.72283420  0.65768262    -0.05900
C1161       C  0.45052631  0.86605237  0.59222949     0.87600
C1162       C  0.47550634  0.83368180  0.72331690     0.88200
C1163       C  0.39592724  0.74987258  0.64650840     0.88300
H1164       H  0.34664433  0.84750041  0.61836448    -0.05900
O1165       O  0.40560291  0.89926869  0.68787554    -0.74900
Mg1166     Mg  0.39546612  0.79243097  0.56767388     1.58000
H1167       H  0.45555740  0.94227978  0.68605266    -0.05900
C1168       C  0.04542472  0.89024610  0.63103867     0.93300
O1169       O  0.47786744  0.78933418  0.57731882    -0.82100
C1170       C  0.45753073  0.76693158  0.54923819     0.93300
O1171       O  0.49647549  0.91055761  0.80664806    -0.82100
Mg1172     Mg  0.35906466  0.84533758  0.70864891     1.58200
O1173       O  0.01845578  0.87174354  0.60801911    -0.80500
O1174       O  0.28711355  0.75249817  0.68398875    -0.82200
C1175       C  0.30561947  0.92194207  0.85923529     0.02900
C1176       C  0.30036249  0.88710525  0.85998812     0.02800
C1177       C  0.32682397  0.88230663  0.84083696    -0.17700
C1178       C  0.35779866  0.91049738  0.82052469     0.02900
C1179       C  0.36227883  0.94573297  0.81978109     0.02800
C1180       C  0.33625547  0.94980749  0.84059911    -0.17700
H1181       H  0.33973467  0.97641318  0.84243016     0.04900
H1182       H  0.32304426  0.85559789  0.84138820     0.04900
C1183       C  0.03143531  0.78170000  0.47677185     0.02900
C1184       C  0.03039114  0.74902789  0.47758584     0.02800
C1185       C  0.00195724  0.71939183  0.49735852    -0.17700
C1186       C  0.47472708  0.72072841  0.51947113     0.02900
C1187       C  0.47600449  0.75474721  0.51953248     0.02800
C1188       C  0.00417056  0.78389999  0.49732548    -0.17700
H1189       H  0.00502704  0.80927770  0.49596293     0.04900
H1190       H  0.00090096  0.69396932  0.49428282     0.04900
C1191       C  0.25551163  0.78036754  0.48560721     0.02900
C1192       C  0.21979606  0.74997797  0.48869122     0.02800
C1193       C  0.21588801  0.72013817  0.51156965    -0.17700
C1194       C  0.24400276  0.71572712  0.52646102     0.02900
C1195       C  0.27913430  0.74542203  0.52452795     0.02800
C1196       C  0.28367131  0.77700623  0.50479620    -0.17700
H1197       H  0.31032349  0.80012465  0.50502140     0.04900
H1198       H  0.18913899  0.69761799  0.51476549     0.04900
C1199       C  0.21972666  0.97071872  0.48985195     0.02900
C1200       C  0.25220381  0.97138624  0.48470781     0.02800
C1201       C  0.28304768  0.50058623  0.50394808    -0.17700
C1202       C  0.28277295  0.52873456  0.52677870     0.02900
C1203       C  0.25094019  0.52862190  0.53044093     0.02800
C1204       C  0.22008873  0.49920744  0.51295503    -0.17700
H1205       H  0.19531093  0.49833687  0.51776499     0.04900
H1206       H  0.30790213  0.50123276  0.50154526     0.04900
C1207       C  0.46299207  0.97573274  0.00710964     0.02900
C1208       C  0.48849327  0.96714217  0.01568711     0.02900
C1209       C  0.02381292  0.49146326  0.00565742     0.02900
C1210       C  0.03315208  0.52353486  0.98528364     0.02900
C1211       C  0.50737830  0.53173356  0.97483905     0.02900
C1212       C  0.47203275  0.50736792  0.98544649     0.02900
C1213       C  0.30802614  0.65913664  0.33668845     0.02900
C1214       C  0.32920260  0.64601806  0.32135720     0.02900
C1215       C  0.36181698  0.67043099  0.30391068     0.02900
C1216       C  0.37082165  0.70638398  0.29553314     0.02900
C1217       C  0.34658765  0.71803957  0.30259928     0.02900
C1218       C  0.31591815  0.69279204  0.32379502     0.02900
C1219       C  0.13162051  0.80629680  0.65072721     0.02900
C1220       C  0.13884438  0.84013593  0.66293980     0.02900
C1221       C  0.17156625  0.86477152  0.68122555     0.02900
C1222       C  0.19798025  0.85600240  0.68602163     0.02900
C1223       C  0.19089977  0.82212909  0.67363162     0.02900
C1224       C  0.15818437  0.79765957  0.65482148     0.02900
C1225       C  0.08727499  0.87331420  0.60465349     0.24200
C1226       C  0.06970075  0.87798292  0.63839767    -0.23900
C1227       C  0.07332952  0.86839852  0.67979916     0.19100
C1228       C  0.09444957  0.85405935  0.68740024     0.24100
C1229       C  0.11318990  0.85080075  0.65404869    -0.23900
C1230       C  0.10978429  0.86047845  0.61268868     0.19000
F1231       F  0.12906087  0.85849673  0.58066239    -0.13800
F1232       F  0.08341235  0.88216290  0.56454561    -0.16200
F1233       F  0.09696916  0.84372443  0.72720280    -0.16200
F1234       F  0.05578444  0.87214856  0.71264730    -0.13800
C1235       C  0.24574872  0.79342837  0.73412032     0.24200
C1236       C  0.26221628  0.78666348  0.70072874    -0.23900
C1237       C  0.25620684  0.79278161  0.65855311     0.19100
C1238       C  0.23400733  0.80575694  0.64987578     0.24100
C1239       C  0.21658839  0.81133585  0.68305145    -0.23900
C1240       C  0.22215957  0.80484963  0.72516332     0.19000
F1241       F  0.20397817  0.80858152  0.75723221    -0.13800
F1242       F  0.25178218  0.78805757  0.77496179    -0.16200
F1243       F  0.22943839  0.81283664  0.60919669    -0.16200
F1244       F  0.27274633  0.78732206  0.62583779    -0.13800
C1245       C  0.24086814  0.89768668  0.73961510     0.24200
C1246       C  0.23411019  0.88470406  0.69781221    -0.23900
C1247       C  0.25513807  0.90687897  0.66506493     0.19100
C1248       C  0.27696603  0.94358759  0.67245632     0.24100
C1249       C  0.27912618  0.95788014  0.71319418    -0.23900
C1250       C  0.26311269  0.93425748  0.74730413     0.19000
F1251       F  0.26517676  0.94690852  0.78730015    -0.13800
F1252       F  0.22127256  0.87633069  0.77183861    -0.16200
F1253       F  0.29325201  0.96503973  0.63903241    -0.16200
F1254       F  0.24968076  0.89415020  0.62460064    -0.13800
C1255       C  0.05575506  0.71769234  0.66587611     0.24200
C1256       C  0.05248002  0.70424632  0.62434240    -0.23900
C1257       C  0.06519843  0.72870160  0.59040704     0.19100
C1258       C  0.08650468  0.76531966  0.59858704     0.24100
C1259       C  0.09513641  0.77750500  0.64052853    -0.23900
C1260       C  0.07604664  0.75447997  0.67363667     0.19000
F1261       F  0.08287534  0.76666540  0.71437216    -0.13800
F1262       F  0.04311414  0.69572554  0.69960608    -0.16200
F1263       F  0.10369069  0.78771353  0.56602869    -0.16200
F1264       F  0.06155336  0.71717091  0.54958705    -0.13800
C1265       C  0.12237707  0.69954582  0.66334689     0.24200
C1266       C  0.12361456  0.68968044  0.62121414    -0.23900
C1267       C  0.13769687  0.71639116  0.58991647     0.19100
C1268       C  0.15068880  0.75211479  0.60104136     0.24100
C1269       C  0.14997832  0.76141973  0.64344967    -0.23900
C1270       C  0.13655442  0.73519376  0.67459289     0.19000
F1271       F  0.13498230  0.74395116  0.71556530    -0.13800
F1272       F  0.10653020  0.67482376  0.69374554    -0.16200
F1273       F  0.16279574  0.77742678  0.57039664    -0.16200
F1274       F  0.13807446  0.70790278  0.54853576    -0.13800
C1275       C  0.19054951  0.94517056  0.74651458     0.24200
C1276       C  0.20843252  0.97272109  0.71680641    -0.23900
C1277       C  0.21129774  0.96357337  0.67486220     0.19100
C1278       C  0.19570778  0.92797722  0.66239038     0.24100
C1279       C  0.17955750  0.90100667  0.69243646    -0.23900
C1280       C  0.17643200  0.90950354  0.73441136     0.19000
F1281       F  0.16161694  0.88348044  0.76409218    -0.13800
F1282       F  0.18799619  0.95272365  0.78761770    -0.16200
F1283       F  0.19903215  0.91988666  0.62170671    -0.16200
F1284       F  0.23106997  0.98883072  0.64636973    -0.13800
C1285       C  0.99219732  0.59659717  0.92416781     0.24200
C1286       C  0.48887707  0.61169109  0.96171357    -0.23900
C1287       C  0.50706028  0.61169829  0.99833206     0.19100
C1288       C  0.52228028  0.59072255  0.99939720     0.24100
C1289       C  0.51753697  0.56860167  0.96447346    -0.23900
C1290       C  0.00697862  0.57497825  0.92565277     0.19000
F1291       F  0.00451864  0.55507977  0.89109573    -0.13800
F1292       F  0.97694501  0.59878210  0.88757156    -0.16200
F1293       F  0.53447266  0.58609979  0.03707558    -0.16200
F1294       F  0.50721236  0.62922817  0.03409885    -0.13800
C1295       C  0.49977196  0.89966519  0.06750168     0.24200
C1296       C  0.00515172  0.88580617  0.02984581    -0.23900
C1297       C  0.98991505  0.88770185  0.99153960     0.19100
C1298       C  0.97551416  0.90935979  0.98906700     0.24100
C1299       C  0.97797898  0.93003454  0.02451549    -0.23900
C1300       C  0.48568141  0.92183735  0.06490035     0.19000
F1301       F  0.48583361  0.94023519  0.09982915    -0.13800
F1302       F  0.51232369  0.89571330  0.10531359    -0.16200
F1303       F  0.96644109  0.91604915  0.95039557    -0.16200
F1304       F  0.99202194  0.87143199  0.95580973    -0.13800
C1305       C  0.12832993  0.58953856  0.00562368     0.24200
C1306       C  0.14167780  0.59557797  0.96437467    -0.23900
C1307       C  0.11906029  0.57948105  0.92931630     0.19100
C1308       C  0.08316482  0.55597769  0.93587008     0.24100
C1309       C  0.07021797  0.54952514  0.97732612    -0.23900
C1310       C  0.09269814  0.56691541  0.01197132     0.19000
F1311       F  0.08003094  0.56206115  0.05195276    -0.13800
F1312       F  0.14959658  0.60666827  0.03970934    -0.16200
F1313       F  0.06118516  0.53918347  0.90223615    -0.16200
F1314       F  0.13181302  0.58611527  0.88927868    -0.13800
C1315       C  0.41611355  0.94831861  0.06124832     0.24200
C1316       C  0.42647735  0.95106669  0.01883355    -0.23900
C1317       C  0.40181782  0.93198760  0.98671133     0.19100
C1318       C  0.36652927  0.91141243  0.99639340     0.24100
C1319       C  0.35580676  0.90827996  0.03869642    -0.23900
C1320       C  0.38062760  0.92630880  0.07132225     0.19000
F1321       F  0.37038042  0.92317757  0.11231741    -0.13800
F1322       F  0.44017068  0.96738331  0.09236284    -0.16200
F1323       F  0.34297270  0.89363744  0.96446276    -0.16200
F1324       F  0.41202655  0.93345955  0.94594667    -0.13800
C1325       C  0.41344213  0.54317278  0.00926412     0.24200
C1326       C  0.39867719  0.54145569  0.96893476    -0.23900
C1327       C  0.40555931  0.02524293  0.93498955     0.19100
C1328       C  0.42870637  0.01284368  0.94067493     0.24100
C1329       C  0.44515836  0.51709179  0.97983844    -0.23900
C1330       C  0.43684603  0.53130930  0.01450627     0.19000
F1331       F  0.45239645  0.53476588  0.05303713    -0.13800
F1332       F  0.40530777  0.55633643  0.04364716    -0.16200
F1333       F  0.43615577  0.99803044  0.90741038    -0.16200
F1334       F  0.39097828  0.02269698  0.89606494    -0.13800
C1335       C  0.08454565  0.45700334  0.98851124     0.24200
C1336       C  0.09625334  0.95744608  0.03004681    -0.23900
C1337       C  0.08658926  0.97205113  0.06317021     0.19100
C1338       C  0.06384426  0.98452670  0.05492862     0.24100
C1339       C  0.05086541  0.98237623  0.01360699    -0.23900
C1340       C  0.06189911  0.46947717  0.98037560     0.19000
F1341       F  0.04965117  0.46784010  0.94022419    -0.13800
F1342       F  0.09494377  0.44456543  0.95552652    -0.16200
F1343       F  0.05330598  0.99730959  0.08735807    -0.16200
F1344       F  0.09805721  0.97292637  0.10352888    -0.13800
C1345       C  0.31685509  0.55373554  0.33520643     0.24200
C1346       C  0.29395340  0.53488931  0.30119924    -0.23900
C1347       C  0.28198455  0.55215245  0.27444134     0.19100
C1348       C  0.29250388  0.58799355  0.28222617     0.24100
C1349       C  0.31565965  0.60705704  0.31627748    -0.23900
C1350       C  0.32848815  0.58968618  0.34188152     0.19000
F1351       F  0.35291706  0.60742057  0.37296086    -0.13800
F1352       F  0.33022709  0.53809996  0.36024236    -0.16200
F1353       F  0.28222831  0.60479465  0.25464296    -0.16200
F1354       F  0.26115921  0.53469708  0.24018201    -0.13800
C1355       C  0.40122140  0.81445906  0.32391383     0.24200
C1356       C  0.37720235  0.81472777  0.35258201    -0.23900
C1357       C  0.34110088  0.79092833  0.34495474     0.19100
C1358       C  0.33065058  0.76606643  0.31200852     0.24100
C1359       C  0.35468669  0.75670206  0.29652108    -0.23900
C1360       C  0.38965861  0.78615132  0.29475721     0.19000
F1361       F  0.41019074  0.79084885  0.26088401    -0.13800
F1362       F  0.43486525  0.84246684  0.32223906    -0.16200
F1363       F  0.29820264  0.75294189  0.29376708    -0.16200
F1364       F  0.31618572  0.79332898  0.36702211    -0.13800
C1365       C  0.21942899  0.61563052  0.39546998     0.24200
C1366       C  0.21535816  0.58228059  0.39620704    -0.23900
C1367       C  0.24592787  0.58129190  0.40061921     0.19100
C1368       C  0.27701594  0.61209627  0.39036248     0.24100
C1369       C  0.27552872  0.63770469  0.36400428    -0.23900
C1370       C  0.24432522  0.64383513  0.36632636     0.19000
F1371       F  0.23599972  0.68687218  0.33186619    -0.13800
F1372       F  0.20673027  0.62288288  0.43085461    -0.16200
F1373       F  0.30801862  0.61737797  0.40595960    -0.16200
F1374       F  0.24581300  0.55172841  0.41458179    -0.13800
C1375       C  0.46590833  0.76599433  0.31960165     0.24200
C1376       C  0.48076242  0.77043338  0.27933507    -0.23900
C1377       C  0.45859491  0.75540885  0.24328234     0.19100
C1378       C  0.42214215  0.73578136  0.24785829     0.24100
C1379       C  0.40787471  0.73192128  0.28823191    -0.23900
C1380       C  0.42969215  0.74779647  0.32379320     0.19000
F1381       F  0.41566000  0.74404895  0.36293577    -0.13800
F1382       F  0.48601933  0.77918156  0.35511013    -0.16200
F1383       F  0.40074925  0.72057324  0.21335201    -0.16200
F1384       F  0.47220888  0.75935350  0.20386984    -0.13800
C1385       C  0.24882472  0.65706313  0.29335676     0.24200
C1386       C  0.28504959  0.69345875  0.32614008    -0.23900
C1387       C  0.27502408  0.70607572  0.37827734     0.19100
C1388       C  0.22882072  0.68385287  0.39629591     0.24100
C1389       C  0.19240901  0.64820886  0.36257149    -0.23900
C1390       C  0.20313056  0.63426058  0.31221634     0.19000
F1391       F  0.17904295  0.60333156  0.29318816    -0.13800
F1392       F  0.25636936  0.64548081  0.25737856    -0.16200
F1393       F  0.22192814  0.69159605  0.43508461    -0.16200
F1394       F  0.30167036  0.72761487  0.40550854    -0.13800
C1395       C  0.44772827  0.68121352  0.33241934     0.24200
C1396       C  0.46084313  0.68387305  0.29140901    -0.23900
C1397       C  0.43661262  0.66854512  0.25703541     0.19100
C1398       C  0.40096928  0.65671506  0.26266413     0.24100
C1399       C  0.38975876  0.66128579  0.30219175    -0.23900
C1400       C  0.41229003  0.67016415  0.33776624     0.19000
F1401       F  0.40171217  0.67457395  0.37644890    -0.13800
F1402       F  0.46960671  0.69310763  0.36679093    -0.16200
F1403       F  0.37901319  0.64699307  0.22829826    -0.16200
F1404       F  0.44788084  0.66929375  0.21703509    -0.13800
O1405       O  0.52733112  0.15494193  0.31186208    -0.87700
C1406       C  0.60594727  0.17594588  0.23138855     0.88300
Mg1407     Mg  0.53031925  0.19061871  0.36154512     1.58100
O1408       O  0.57742826  0.11086523  0.31082388    -0.87500
O1409       O  0.50299896  0.09773382  0.29717424    -0.74800
C1410       C  0.68603429  0.24010621  0.46269843     0.93300
O1411       O  0.58915901  0.23107520  0.28281549    -0.74600
O1412       O  0.67090309  0.25885552  0.45999204    -0.82100
Mg1413     Mg  0.54375680  0.17981382  0.24959495     1.58000
C1414       C  0.65777317  0.12641219  0.37929062     0.93300
O1415       O  0.99703350  0.12972279  0.21798001    -0.80400
H1416       H  0.53782713  0.06984242  0.34157579    -0.05700
C1417       C  0.66260288  0.21240051  0.34808015     0.88200
O1418       O  0.53478574  0.15819234  0.41515417    -0.74900
O1419       O  0.57521143  0.15564093  0.24567398    -0.87700
O1420       O  0.63203430  0.10893165  0.35460181    -0.80500
C1421       C  0.61915741  0.09757110  0.21860970     0.93400
C1422       C  0.98229011  0.09851400  0.20114966     0.93200
Mg1423     Mg  0.62162810  0.15830147  0.41551101     1.58000
O1424       O  0.66995620  0.20814039  0.44723156    -0.80400
O1425       O  0.57374182  0.10855455  0.38151452    -0.74600
O1426       O  0.58778459  0.09182140  0.21036143    -0.80500
O1427       O  0.00995137  0.20291276  0.24742338    -0.82200
O1428       O  0.58183314  0.24814369  0.45155641    -0.80500
C1429       C  0.56220994  0.09547038  0.34420583     0.87700
O1430       O  0.59268883  0.18432588  0.42029262    -0.87700
O1431       O  0.63737483  0.18150695  0.35281069    -0.87800
O1432       O  0.66277087  0.23928756  0.36421256    -0.74800
Mg1433     Mg  0.54432339  0.09600251  0.25460674     1.58000
O1434       O  0.63468062  0.11084187  0.25351175    -0.82200
H1435       H  0.47963917  0.11831725  0.33337914    -0.05900
O1436       O  0.58687393  0.22680257  0.35307874    -0.87500
H1437       H  0.62318755  0.27072610  0.32311704    -0.05700
H1438       H  0.55960081  0.14839398  0.46311628    -0.05900
C1439       C  0.60038551  0.24392526  0.32011528     0.87600
C1440       C  0.50236759  0.12368890  0.31492701     0.88200
C1441       C  0.56225915  0.16368712  0.43498483     0.88300
H1442       H  0.68475704  0.21664373  0.32921150    -0.05900
O1443       O  0.63293797  0.17929440  0.25051606    -0.74900
Mg1444     Mg  0.62322864  0.24287934  0.40751643     1.58000
H1445       H  0.60934731  0.19220758  0.20395676    -0.05900
C1446       C  0.99912288  0.20460538  0.28342342     0.93300
O1447       O  0.53146814  0.22541749  0.41276692    -0.82100
C1448       C  0.54976579  0.24099347  0.44571577     0.93300
O1449       O  0.49830923  0.08062999  0.20173285    -0.82100
Mg1450     Mg  0.63345468  0.14456852  0.30429845     1.58200
O1451       O  0.02196816  0.22165234  0.31229139    -0.80500
O1452       O  0.65250893  0.13111492  0.41699661    -0.82200
C1453       C  0.63987193  0.05687449  0.19314985     0.02900
C1454       C  0.64041387  0.08943111  0.18884346     0.02800
C1455       C  0.66965862  0.11812867  0.16699305    -0.17700
C1456       C  0.69662074  0.11420035  0.14704218     0.02900
C1457       C  0.69294953  0.07963161  0.14899083     0.02800
C1458       C  0.66521196  0.05238093  0.17236462    -0.17700
H1459       H  0.66367436  0.02669493  0.17522055     0.04900
H1460       H  0.67168349  0.14404296  0.16600562     0.04900
C1461       C  0.91344182  0.05502623  0.18279496     0.02900
C1462       C  0.94755349  0.08732832  0.17804900     0.02800
C1463       C  0.94795544  0.11629792  0.15659672    -0.17700
C1464       C  0.91727541  0.11609897  0.14295496     0.02900
C1465       C  0.88408576  0.08491611  0.14681195     0.02800
C1466       C  0.88291149  0.05491847  0.16573566    -0.17700
H1467       H  0.85721042  0.03046861  0.16655583     0.04900
H1468       H  0.97319137  0.14061626  0.15122973     0.04900
O1469       O  0.64861072  0.46573092  0.35467161    -0.87700
C1470       C  0.56804431  0.40007751  0.43180605     0.88300
Mg1471     Mg  0.64597964  0.50245790  0.30999871     1.58100
O1472       O  0.59622135  0.36495460  0.35167626    -0.87500
O1473       O  0.66950544  0.43039823  0.36686536    -0.74800
C1474       C  0.99123109  0.38816482  0.21247096     0.93300
O1475       O  0.58888354  0.47999259  0.39023501    -0.74600
O1476       O  0.50647250  0.42231770  0.21801603    -0.82100
Mg1477     Mg  0.63156693  0.46936145  0.41713829     1.58000
C1478       C  0.01837553  0.29519331  0.27391799     0.93300
O1479       O  0.67369327  0.46448092  0.44794603    -0.80400
H1480       H  0.63627774  0.36527146  0.32186941    -0.05700
C1481       C  0.51485973  0.38125774  0.32423834     0.88200
O1482       O  0.63941439  0.46691627  0.25354054    -0.74900
O1483       O  0.59789630  0.41356435  0.41652477    -0.87700
O1484       O  0.04026792  0.30403683  0.30437256    -0.80500
C1485       C  0.55304633  0.30845570  0.44384000     0.93400
C1486       C  0.68643862  0.44745178  0.46518396     0.93200
Mg1487     Mg  0.55634137  0.37322410  0.24989951     1.58000
O1488       O  0.00717526  0.37179131  0.22322452    -0.80400
O1489       O  0.60333693  0.37105328  0.28155216    -0.74600
O1490       O  0.58176415  0.33832992  0.45257840    -0.80500
O1491       O  0.67269940  0.02612200  0.42035506    -0.82200
O1492       O  0.59171676  0.50306377  0.22364883    -0.80500
C1493       C  0.61255311  0.36664619  0.31875400     0.87700
O1494       O  0.58278554  0.42847053  0.25249438    -0.87700
O1495       O  0.53978965  0.37603853  0.31564126    -0.87800
O1496       O  0.51524250  0.40921827  0.31197156    -0.74800
Mg1497     Mg  0.62657340  0.38540706  0.40872348     1.58000
O1498       O  0.54147765  0.29987909  0.40604975    -0.82200
H1499       H  0.69496728  0.47570089  0.33157639    -0.05900
O1500       O  0.59041128  0.47845998  0.32071570    -0.87500
H1501       H  0.55767298  0.48958916  0.35142778    -0.05700
H1502       H  0.61436883  0.43047754  0.20623875    -0.05900
C1503       C  0.57834648  0.48324200  0.35370672     0.87600
C1504       C  0.67197213  0.45823671  0.35012063     0.88200
C1505       C  0.61192727  0.44189549  0.23559823     0.88300
H1506       H  0.49400156  0.36249098  0.34448711    -0.05900
O1507       O  0.54198656  0.37197981  0.41558258    -0.74900
Mg1508     Mg  0.55348469  0.45452055  0.26833592     1.58000
H1509       H  0.56396661  0.41266339  0.45901139    -0.05900
C1510       C  0.68038272  0.05024813  0.39364127     0.93300
O1511       O  0.64168287  0.03799197  0.26135591    -0.82100
C1512       C  0.62229332  0.53175870  0.22861342     0.93300
O1513       O  0.66890500  0.41313575  0.46430277    -0.82100
Mg1514     Mg  0.54090441  0.33767260  0.35926591     1.58200
O1515       O  0.66017393  0.04536225  0.36197878    -0.80500
O1516       O  0.02728542  0.31404522  0.24115359    -0.82200
O1517       O  0.82891422  0.36691323  0.35183283    -0.87700
C1518       C  0.84075389  0.43968272  0.43913254     0.88300
Mg1519     Mg  0.87182734  0.37444895  0.30894535     1.58100
O1520       O  0.77853655  0.41519809  0.35699204    -0.87500
O1521       O  0.77185786  0.34258085  0.36207407    -0.74800
C1522       C  0.90445399  0.02189951  0.20829764     0.93300
O1523       O  0.89835076  0.43006788  0.39011836    -0.74600
O1524       O  0.92271516  0.50646213  0.20988034    -0.82100
Mg1525     Mg  0.84769953  0.37877039  0.41717239     1.58000
C1526       C  0.78849513  0.99968377  0.29046549     0.93300
O1527       O  0.79862429  0.32886186  0.44518781    -0.80400
H1528       H  0.73647557  0.37746413  0.32442336    -0.05700
C1529       C  0.87895276  0.50229782  0.32503451     0.88200
O1530       O  0.84014525  0.37482659  0.25056760    -0.74900
O1531       O  0.82265674  0.40911558  0.42376579    -0.87700
O1532       O  0.77523852  0.97496780  0.31737051    -0.80500
C1533       C  0.75895291  0.45115389  0.45064229     0.93400
C1534       C  0.76791389  0.31515333  0.46146449     0.93200
Mg1535     Mg  0.82690753  0.46036936  0.25732521     1.58000
O1536       O  0.87423919  0.00706509  0.22561422    -0.80400
O1537       O  0.77612647  0.41288847  0.28671755    -0.74600
O1538       O  0.75719019  0.42067961  0.45661745    -0.80500
O1539       O  0.87107687  0.34196328  0.41373122    -0.82200
O1540       O  0.91847883  0.42017636  0.21972064    -0.80500
C1541       C  0.76261973  0.40111142  0.32309466     0.87700
O1542       O  0.85282451  0.43046956  0.25259718    -0.87700
O1543       O  0.84841691  0.47646889  0.32061473    -0.87800
O1544       O  0.90500121  0.50285766  0.30716040    -0.74800
Mg1545     Mg  0.76618239  0.37997606  0.40985355     1.58000
O1546       O  0.77167266  0.46892656  0.41690095    -0.82200
H1547       H  0.79260795  0.32305190  0.32006045    -0.05900
O1548       O  0.89845766  0.43005130  0.31956024    -0.87500
H1549       H  0.93710412  0.46955189  0.35467406    -0.05700
H1550       H  0.82206549  0.39609982  0.20679873    -0.05900
C1551       C  0.91225653  0.44426909  0.35443004     0.87600
C1552       C  0.79785309  0.34348533  0.34348573     0.88200
C1553       C  0.83779420  0.40055403  0.23520694     0.88300
H1554       H  0.88362354  0.52495161  0.34436719    -0.05900
O1555       O  0.84190352  0.46671308  0.42207159    -0.74900
Mg1556     Mg  0.90997155  0.46251289  0.26391267     1.58000
H1557       H  0.85722331  0.44371694  0.46669961    -0.05900
C1558       C  0.88780018  0.34548040  0.38021864     0.93300
O1559       O  0.91540196  0.37995479  0.26579375    -0.82100
C1560       C  0.92189873  0.39298800  0.22881511     0.93300
O1561       O  0.75142403  0.33254285  0.46022060    -0.82100
Mg1562     Mg  0.80958222  0.47117257  0.36764993     1.58200
O1563       O  0.90408064  0.37588774  0.36406512    -0.80500
O1564       O  0.80487350  0.99729296  0.25923482    -0.82200
C1565       C  0.92547074  0.36992916  0.19563668     0.02900
C1566       C  0.95515251  0.36517964  0.19178320     0.02800
C1567       C  0.95017034  0.33441467  0.16927013    -0.17700
C1568       C  0.91829874  0.30877452  0.14862490     0.02900
C1569       C  0.88865756  0.31378327  0.15202032     0.02800
C1570       C  0.89320994  0.34383996  0.17593672    -0.17700
H1571       H  0.87053102  0.34711678  0.17925861     0.04900
H1572       H  0.97288308  0.33126188  0.16545889     0.04900
O1573       O  0.80253525  0.51396186  0.02244687    -0.87700
C1574       C  0.76898951  0.08304732  0.02487786     0.88300
Mg1575     Mg  0.80390837  0.48666455  0.96737563     1.58100
O1576       O  0.72206994  0.99712660  0.07222745    -0.87500
O1577       O  0.79389996  0.50447478  0.09014581    -0.74800
C1578       C  0.64283972  0.41635922  0.88262357     0.93300
O1579       O  0.80011434  0.06029537  0.94873588    -0.74600
O1580       O  0.67161827  0.42052784  0.86722262    -0.82100
Mg1581     Mg  0.82757877  0.07124628  0.01572509     1.58000
C1582       C  0.62009967  0.44459116  0.03836860     0.93300
O1583       O  0.85493227  0.07887092  0.08119837    -0.80400
H1584       H  0.72011412  0.46006513  0.11157894    -0.05700
C1585       C  0.68857192  0.99787706  0.94843611     0.88200
O1586       O  0.75831215  0.43282972  0.98914333    -0.74900
O1587       O  0.78223313  0.06749371  0.04511652    -0.87700
O1588       O  0.64654174  0.96201312  0.06233066    -0.80500
C1589       C  0.70990214  0.06574811  0.12076184     0.93400
C1590       C  0.85269753  0.07993332  0.12143950     0.93200
Mg1591     Mg  0.66792328  0.42789684  0.98814557     1.58000
O1592       O  0.63981779  0.41901994  0.92246820    -0.80400
O1593       O  0.69462913  0.43898933  0.05541149    -0.74600
O1594       O  0.74058207  0.07002924  0.12872960    -0.80500
O1595       O  0.87681076  0.07790888  0.98937506    -0.82200
O1596       O  0.75544732  0.42826760  0.87868817    -0.80500
C1597       C  0.71251954  0.46546651  0.08107319     0.87700
O1598       O  0.71266717  0.43243997  0.96031084    -0.87700
O1599       O  0.69176017  0.98525901  0.98200046    -0.87800
O1600       O  0.69974852  0.99250926  0.91401083    -0.74800
Mg1601     Mg  0.76828520  0.03731386  0.10618149     1.58000
O1602       O  0.68932336  0.04422088  0.09228091    -0.82200
H1603       H  0.81792544  0.48446669  0.05434104    -0.05900
O1604       O  0.77207888  0.00186019  0.93297647    -0.87500
H1605       H  0.77321064  0.03841032  0.89346151    -0.05700
H1606       H  0.70842430  0.38963625  0.98950213    -0.05900
C1607       C  0.78144274  0.03344000  0.92379761     0.87600
C1608       C  0.80559983  0.50047761  0.05536793     0.88200
C1609       C  0.72569386  0.41685525  0.97906047     0.88300
H1610       H  0.67624932  0.01390314  0.94845547    -0.05900
O1611       O  0.73635867  0.06692532  0.01501320    -0.74900
Mg1612     Mg  0.72628829  0.45998680  0.90026712     1.58000
H1613       H  0.78628705  0.11001371  0.01368118    -0.05900
C1614       C  0.87446944  0.05437132  0.96411050     0.93300
O1615       O  0.80692787  0.45732198  0.91408682    -0.82100
C1616       C  0.78706547  0.43495543  0.88614105     0.93300
O1617       O  0.82404869  0.07444963  0.13895297    -0.82100
Mg1618     Mg  0.69081016  0.01329068  0.03754686     1.58200
O1619       O  0.84737566  0.53740846  0.94125131    -0.80500
O1620       O  0.61834274  0.42040340  0.01465238    -0.82200
O1621       O  0.70707291  0.19416315  0.02123186    -0.87700
C1622       C  0.81033439  0.23412705  0.02876235     0.88300
Mg1623     Mg  0.67853620  0.19164536  0.96463780     1.58100
O1624       O  0.77187002  0.27864483  0.07616607    -0.87500
O1625       O  0.70789064  0.20370858  0.08931405    -0.74800
C1626       C  0.77262137  0.35743098  0.88694023     0.93300
O1627       O  0.75830521  0.20118531  0.95014937    -0.74600
O1628       O  0.74836894  0.32764797  0.87014883    -0.82100
Mg1629     Mg  0.74127997  0.17248980  0.01582285     1.58000
C1630       C  0.81911556  0.38335982  0.04771602     0.93300
O1631       O  0.71956261  0.14180725  0.07998150    -0.80400
H1632       H  0.73468402  0.27698843  0.11370287    -0.05700
C1633       C  0.80658498  0.31315284  0.95464962     0.88200
O1634       O  0.67004024  0.23662825  0.98721266    -0.74900
O1635       O  0.78118150  0.21910390  0.04631927    -0.87700
O1636       O  0.81115261  0.35650208  0.07037612    -0.80500
C1637       C  0.85565370  0.29609552  0.12492818     0.93400
C1638       C  0.72398861  0.14477579  0.12021877     0.93200
Mg1639     Mg  0.75579172  0.33135014  0.99231617     1.58000
O1640       O  0.77685267  0.36091121  0.92723427    -0.80400
O1641       O  0.73950675  0.30295893  0.05841969    -0.74600
O1642       O  0.82984831  0.26336550  0.12968024    -0.80500
O1643       O  0.70017083  0.12137891  0.98525425    -0.82200
O1644       O  0.66982815  0.24056862  0.87661743    -0.80500
C1645       C  0.74846687  0.28591085  0.08400542     0.87700
O1646       O  0.71619582  0.28471497  0.96171091    -0.87700
O1647       O  0.79059788  0.31026795  0.98771129    -0.87800
O1648       O  0.79017863  0.30078638  0.91970321    -0.74800
Mg1649     Mg  0.76709943  0.23174206  0.10646899     1.58000
O1650       O  0.85304431  0.31732749  0.09964750    -0.82200
H1651       H  0.66276269  0.17852675  0.05369314    -0.05900
O1652       O  0.72643702  0.22606491  0.93309685    -0.87500
H1653       H  0.76347306  0.22774868  0.89527703    -0.05700
H1654       H  0.67657288  0.28634377  0.98987337    -0.05900
C1655       C  0.74964401  0.21864066  0.92492500     0.87600
C1656       C  0.69127374  0.19138835  0.05444020     0.88200
C1657       C  0.68696526  0.26997128  0.97905657     0.88300
H1658       H  0.83510994  0.32620292  0.95558579    -0.05900
O1659       O  0.82739387  0.26765539  0.02154409    -0.74900
Mg1660     Mg  0.73117567  0.27216658  0.90187222     1.58000
H1661       H  0.82068525  0.21792246  0.01720086    -0.05900
C1662       C  0.67859612  0.12160536  0.95897760     0.93300
O1663       O  0.64584351  0.18777996  0.90935237    -0.82100
C1664       C  0.64405656  0.20811619  0.88203857     0.93300
O1665       O  0.74837026  0.17459989  0.13718274    -0.82100
Mg1666     Mg  0.81952260  0.31314788  0.04424649     1.58200
O1667       O  0.68734822  0.14911543  0.93739477    -0.80500
O1668       O  0.79630564  0.38304823  0.02304353    -0.82200
O1669       O  0.99790919  0.29036226  0.97318009    -0.87700
C1670       C  0.58535753  0.28205046  0.97474625     0.88300
Mg1671     Mg  0.96936764  0.29732899  0.02946509     1.58100
O1672       O  0.50205041  0.22314559  0.92563981    -0.87500
O1673       O  0.00002575  0.29007384  0.90376774    -0.74800
C1674       C  0.92201573  0.14595488  0.11620676     0.93300
O1675       O  0.54867734  0.30529652  0.05002324    -0.74600
O1676       O  0.91990128  0.17238975  0.13100422    -0.82100
Mg1677     Mg  0.55617935  0.32892423  0.98138926     1.58000
C1678       C  0.96796353  0.12855649  0.96311708     0.93300
O1679       O  0.56390333  0.35314319  0.91566869    -0.80400
H1680       H  0.96270152  0.21634797  0.88685134    -0.05700
C1681       C  0.50555037  0.20202488  0.05595468     0.88200
O1682       O  0.91768108  0.24715510  0.00981968    -0.74900
O1683       O  0.56495707  0.28901448  0.95584091    -0.87700
O1684       O  0.47564068  0.15358875  0.93873068    -0.80500
C1685       C  0.57131724  0.21053084  0.88194810     0.93400
C1686       C  0.57161453  0.35170726  0.87725801     0.93200
Mg1687     Mg  0.93760025  0.16843872  0.01237607     1.58000
O1688       O  0.92977419  0.14444935  0.07786520    -0.80400
O1689       O  0.94516802  0.19217081  0.94379459    -0.74600
O1690       O  0.57371584  0.24081359  0.87243698    -0.80500
O1691       O  0.54656488  0.37349593  0.00002687    -0.82200
O1692       O  0.92163833  0.25651680  0.12403657    -0.80500
C1693       C  0.96997495  0.21091654  0.91754170     0.87700
O1694       O  0.92839000  0.20812434  0.03820975    -0.87700
O1695       O  0.49541523  0.20741767  0.02071093    -0.87800
O1696       O  0.49355233  0.20693615  0.09003502    -0.74800
Mg1697     Mg  0.53899765  0.26934090  0.89369007     1.58000
O1698       O  0.55327159  0.19247947  0.91326233    -0.82200
H1699       H  0.96913963  0.30429923  0.93588648    -0.05900
O1700       O  0.99176997  0.27401659  0.06816261    -0.87500
H1701       H  0.53123139  0.28124062  0.10705239    -0.05700
H1702       H  0.88186620  0.19363486  0.01021352    -0.05900
C1703       C  0.52391152  0.28655445  0.07632067     0.87600
C1704       C  0.98789808  0.29535675  0.93759019     0.88200
C1705       C  0.90791922  0.21517363  0.01965559     0.88300
H1706       H  0.52431838  0.19308837  0.05713191    -0.05900
O1707       O  0.57547763  0.25015986  0.98516393    -0.74900
Mg1708     Mg  0.95497180  0.22777232  0.10030876     1.58000
H1709       H  0.61141434  0.30362679  0.98411128    -0.05900
C1710       C  0.52627574  0.36908482  0.03010674     0.93300
O1711       O  0.94076426  0.30473683  0.08335544    -0.82100
C1712       C  0.92422749  0.28700822  0.11570984     0.93300
O1713       O  0.57352200  0.32510341  0.86245318    -0.82100
Mg1714     Mg  0.52392933  0.20003690  0.96527821     1.58200
O1715       O  0.01795338  0.34390930  0.05481983    -0.80500
O1716       O  0.94875555  0.12455097  0.99427435    -0.82200
O1717       O  0.66228479  0.02694761  0.69154836    -0.87700
C1718       C  0.67048083  0.10600186  0.76724226     0.88300
Mg1719     Mg  0.70216091  0.03343954  0.64720914     1.58100
O1720       O  0.60861475  0.07321210  0.68456942    -0.87500
O1721       O  0.60490623  0.00173445  0.69897127    -0.74800
C1722       C  0.73274766  0.17965051  0.54548933     0.93300
O1723       O  0.73280381  0.09614959  0.72492683    -0.74600
O1724       O  0.75153204  0.16489689  0.54668712    -0.82100
Mg1725     Mg  0.68293630  0.04813827  0.75470292     1.58000
C1726       C  0.61490223  0.15296239  0.61113342     0.93300
O1727       O  0.63517013  0.50030332  0.78355352    -0.80400
H1728       H  0.56599008  0.03282314  0.65555670    -0.05700
C1729       C  0.70503934  0.16093450  0.65588510     0.88200
O1730       O  0.66836786  0.03170071  0.59043534    -0.74900
O1731       O  0.65534013  0.07532642  0.75192531    -0.87700
O1732       O  0.60107531  0.12841904  0.63834556    -0.80500
C1733       C  0.58997746  0.11139938  0.77610358     0.93400
C1734       C  0.60376106  0.48486806  0.79744964     0.93200
Mg1735     Mg  0.65398962  0.11498085  0.58604280     1.58000
O1736       O  0.70145283  0.16267580  0.55924403    -0.80400
O1737       O  0.60361633  0.06691037  0.61475769    -0.74600
O1738       O  0.59249499  0.08390523  0.78496610    -0.80500
O1739       O  0.71017818  0.51646552  0.76245483    -0.82200
O1740       O  0.74413182  0.07868551  0.55431044    -0.80500
C1741       C  0.59163554  0.05684109  0.65208386     0.87700
O1742       O  0.68126840  0.08744791  0.58829047    -0.87700
O1743       O  0.67456607  0.13553672  0.64909949    -0.87800
O1744       O  0.73196709  0.16086754  0.64175305    -0.74800
Mg1745     Mg  0.59890277  0.04222840  0.74050931     1.58000
O1746       O  0.59394198  0.12316767  0.73873698    -0.82200
H1747       H  0.62791624  0.97860529  0.66675372    -0.05900
O1748       O  0.72817691  0.08957661  0.65505210    -0.87500
H1749       H  0.77041290  0.13031496  0.68418826    -0.05700
H1750       H  0.64950122  0.05080869  0.54503182    -0.05900
C1751       C  0.74488779  0.10613383  0.68760746     0.87600
C1752       C  0.63180369  0.00145478  0.68511087     0.88200
C1753       C  0.66600573  0.05672270  0.57304524     0.88300
H1754       H  0.70888953  0.18352158  0.67476532    -0.05900
O1755       O  0.66825505  0.13102593  0.74968912    -0.74900
Mg1756     Mg  0.73793632  0.12083833  0.59929193     1.58000
H1757       H  0.68678489  0.11187474  0.79543341    -0.05900
C1758       C  0.72094361  0.51012662  0.72858839     0.93300
O1759       O  0.74318721  0.03981193  0.60080956    -0.82100
C1760       C  0.74664402  0.05110979  0.56323500     0.93300
O1761       O  0.58563293  0.00010672  0.79418948    -0.82100
Mg1762     Mg  0.63471212  0.12936238  0.69271321     1.58200
O1763       O  0.73540450  0.53494218  0.70183084    -0.80500
O1764       O  0.62825788  0.14783571  0.57878543    -0.82200
C1765       C  0.61352302  0.18902686  0.85207560     0.02900
C1766       C  0.58125973  0.18980629  0.85221625     0.02800
C1767       C  0.55179419  0.16159188  0.83020017    -0.17700
C1768       C  0.55278980  0.13332015  0.80925290     0.02900
C1769       C  0.58435605  0.13285729  0.80872470     0.02800
C1770       C  0.61418741  0.16097240  0.82943066    -0.17700
H1771       H  0.63873316  0.16084322  0.82820279     0.04900
H1772       H  0.52716588  0.16159490  0.82916422     0.04900
C1773       C  0.61384103  0.41405399  0.85449089     0.02900
C1774       C  0.57966020  0.38344988  0.85171997     0.02800
C1775       C  0.55133061  0.38630529  0.83357124    -0.17700
C1776       C  0.55603772  0.41886862  0.81646944     0.02900
C1777       C  0.59126636  0.44958945  0.81858008     0.02800
C1778       C  0.61872515  0.44624970  0.83821097    -0.17700
H1779       H  0.64493406  0.46984386  0.84185078     0.04900
H1780       H  0.52509052  0.36255444  0.83259726     0.04900
O1781       O  0.96358472  0.13859236  0.64954920    -0.87700
C1782       C  0.90051290  0.06290333  0.56781730     0.88300
Mg1783     Mg  0.99672579  0.13354561  0.69529492     1.58100
O1784       O  0.86510135  0.08576166  0.65169688    -0.87500
O1785       O  0.93062622  0.16239226  0.64230939    -0.74800
C1786       C  0.88672446  0.47874931  0.79363167     0.93300
O1787       O  0.97061533  0.07441279  0.61333263    -0.74600
O1788       O  0.92051801  0.99392999  0.79046740    -0.82100
Mg1789     Mg  0.96731280  0.12208773  0.58513671     1.58000
C1790       C  0.79723680  0.49696897  0.72109415     0.93300
O1791       O  0.96722264  0.17077863  0.55787728    -0.80400
H1792       H  0.86064465  0.12296765  0.68384533    -0.05700
C1793       C  0.87891363  0.99932849  0.67996009     0.88200
O1794       O  0.96221877  0.12831675  0.75123486    -0.74900
O1795       O  0.91289630  0.09294206  0.58425987    -0.87700
O1796       O  0.80297814  0.51951567  0.69230380    -0.80500
C1797       C  0.81082367  0.04823203  0.55896217     0.93400
C1798       C  0.95116621  0.18622480  0.54400444     0.93200
Mg1799     Mg  0.87039130  0.04171084  0.75035643     1.58000
O1800       O  0.87170160  0.49485766  0.77891887    -0.80400
O1801       O  0.86619156  0.08856300  0.72191817    -0.74600
O1802       O  0.83832943  0.07954322  0.55282857    -0.80500
O1803       O  0.52602608  0.15361820  0.57914389    -0.82200
O1804       O  0.99783262  0.08293552  0.78277441    -0.80500
C1805       C  0.86352552  0.09974947  0.68543877     0.87700
O1806       O  0.92463395  0.07072060  0.75095443    -0.87700
O1807       O  0.87393519  0.02443758  0.68663945    -0.87800
O1808       O  0.90614295  0.99988188  0.69442640    -0.74800
Mg1809     Mg  0.88628213  0.12182563  0.59810117     1.58000
O1810       O  0.80564191  0.03093710  0.59299203    -0.82200
H1811       H  0.97641196  0.18556108  0.67666479    -0.05900
O1812       O  0.97166667  0.07663661  0.68368584    -0.87500
H1813       H  0.97536955  0.03922610  0.65092418    -0.05700
H1814       H  0.92592909  0.10304348  0.79713877    -0.05900
C1815       C  0.97295703  0.06273814  0.64968915     0.87600
C1816       C  0.95798030  0.16320427  0.65684237     0.88200
C1817       C  0.93743793  0.10046009  0.76822421     0.88300
H1818       H  0.86005514  0.97677791  0.66068934    -0.05900
O1819       O  0.87620211  0.03499882  0.58537089    -0.74900
Mg1820     Mg  0.95063860  0.04090302  0.73788397     1.58000
H1821       H  0.91219680  0.06012230  0.53917384    -0.05900
C1822       C  0.53857236  0.16555017  0.61532543     0.93300
O1823       O  0.53196501  0.13021581  0.74167467    -0.82100
C1824       C  0.02577067  0.11369795  0.77634671     0.93300
O1825       O  0.91719088  0.16993681  0.54693274    -0.82100
Mg1826     Mg  0.84078573  0.02889632  0.64059718     1.58200
O1827       O  0.53375108  0.14290296  0.64357848    -0.80500
O1828       O  0.81190121  0.50860309  0.75655509    -0.82200
O1829       O  0.97342520  0.34706437  0.68983281    -0.87700
C1830       C  0.93849523  0.41512804  0.69672041     0.88300
Mg1831     Mg  0.97483556  0.31961971  0.63317933     1.58100
O1832       O  0.89106068  0.33014771  0.74289398    -0.87500
O1833       O  0.96408523  0.33902348  0.75783090    -0.74800
C1834       C  0.80959357  0.24865579  0.55137354     0.93300
O1835       O  0.96819237  0.39235675  0.61831386    -0.74600
O1836       O  0.83862827  0.25400444  0.53486893    -0.82100
Mg1837     Mg  0.99682422  0.40458560  0.68485644     1.58000
C1838       C  0.78740216  0.27555238  0.70869412     0.93300
O1839       O  0.52749522  0.41422649  0.74968203    -0.80400
H1840       H  0.88984286  0.29274378  0.78092543    -0.05700
C1841       C  0.85834568  0.33094617  0.61849261     0.88200
O1842       O  0.92880820  0.26564942  0.65483177    -0.74900
O1843       O  0.95189607  0.39951954  0.71459989    -0.87700
O1844       O  0.81370950  0.29387268  0.73285403    -0.80500
C1845       C  0.87617466  0.39729714  0.79253220     0.93400
C1846       C  0.02558236  0.41635150  0.78987227     0.93200
Mg1847     Mg  0.83700738  0.26047300  0.65715342     1.58000
O1848       O  0.80745842  0.25089047  0.59154177    -0.80400
O1849       O  0.86432536  0.27217845  0.72457305    -0.74600
O1850       O  0.90806481  0.40369546  0.79910629    -0.80500
O1851       O  0.54646963  0.41314181  0.65626280    -0.82200
O1852       O  0.92565586  0.26065523  0.54313363    -0.80500
C1853       C  0.88200919  0.29840585  0.75073508     0.87700
O1854       O  0.88224502  0.26516382  0.62832560    -0.87700
O1855       O  0.86074971  0.31794462  0.65218400    -0.87800
O1856       O  0.86950045  0.32531868  0.58412363    -0.74800
Mg1857     Mg  0.93858646  0.37211148  0.77476704     1.58000
O1858       O  0.85607101  0.37515419  0.76420358    -0.82200
H1859       H  0.98675021  0.31672942  0.72348294    -0.05900
O1860       O  0.94225100  0.33442088  0.59978705    -0.87500
H1861       H  0.94184994  0.37142571  0.56251692    -0.05700
H1862       H  0.87881411  0.22277287  0.65768752    -0.05900
C1863       C  0.95047078  0.36600982  0.59230358     0.87600
C1864       C  0.97539381  0.33363680  0.72343231     0.88200
C1865       C  0.89581020  0.24981482  0.64653328     0.88300
H1866       H  0.84664927  0.34754678  0.61830420    -0.05900
O1867       O  0.90561512  0.39933905  0.68789494    -0.74900
Mg1868     Mg  0.89541403  0.29239360  0.56768562     1.58000
H1869       H  0.95558236  0.44233265  0.68611904    -0.05900
C1870       C  0.54522590  0.39012280  0.63088259     0.93300
O1871       O  0.97780427  0.28927795  0.57741026    -0.82100
C1872       C  0.95748993  0.26688791  0.54930478     0.93300
O1873       O  0.99643654  0.41059971  0.80673611    -0.82100
Mg1874     Mg  0.85905745  0.34540991  0.70862737     1.58200
O1875       O  0.51821208  0.37172612  0.60791195    -0.80500
O1876       O  0.78702334  0.25260352  0.68390954    -0.82200
C1877       C  0.80559004  0.42202148  0.85926937     0.02900
C1878       C  0.80031504  0.38717295  0.85998407     0.02800
C1879       C  0.82676754  0.38237270  0.84080879    -0.17700
C1880       C  0.85775122  0.41056537  0.82051188     0.02900
C1881       C  0.86225192  0.44581188  0.81980046     0.02800
C1882       C  0.83623213  0.44988715  0.84063322    -0.17700
H1883       H  0.83972658  0.47649842  0.84248805     0.04900
H1884       H  0.82297705  0.35565913  0.84133709     0.04900
C1885       C  0.53137048  0.28162410  0.47674324     0.02900
C1886       C  0.53031606  0.24894761  0.47753720     0.02800
C1887       C  0.50189843  0.21931685  0.49732914    -0.17700
C1888       C  0.97471476  0.22070712  0.51949887     0.02900
C1889       C  0.97599108  0.25472666  0.51960191     0.02800
C1890       C  0.50410937  0.28382344  0.49730475    -0.17700
H1891       H  0.50496244  0.30919944  0.49593677     0.04900
H1892       H  0.50083928  0.19389360  0.49424010     0.04900
C1893       C  0.75544018  0.28030166  0.48552859     0.02900
C1894       C  0.71972406  0.24991801  0.48863673     0.02800
C1895       C  0.71582587  0.22007893  0.51150881    -0.17700
C1896       C  0.74394888  0.21567762  0.52639570     0.02900
C1897       C  0.77907788  0.24537806  0.52446610     0.02800
C1898       C  0.78360529  0.27695109  0.50472055    -0.17700
H1899       H  0.81025621  0.30007170  0.50493735     0.04900
H1900       H  0.68907876  0.19755593  0.51471056     0.04900
C1901       C  0.71975800  0.47064412  0.48986179     0.02900
C1902       C  0.75227163  0.47138271  0.48470908     0.02800
C1903       C  0.78300627  0.00051049  0.50399406    -0.17700
C1904       C  0.78274886  0.02868257  0.52679401     0.02900
C1905       C  0.75093397  0.02861224  0.53041096     0.02800
C1906       C  0.72008032  0.99922060  0.51289547    -0.17700
H1907       H  0.69531333  0.99838115  0.51766494     0.04900
H1908       H  0.80784759  0.00112651  0.50162488     0.04900
C1909       C  0.96297562  0.47572151  0.00714204     0.02900
C1910       C  0.98842660  0.46703725  0.01562610     0.02900
C1911       C  0.52385591  0.99158928  0.00564485     0.02900
C1912       C  0.53313245  0.02361066  0.98518246     0.02900
C1913       C  0.00744287  0.03184134  0.97530293     0.02900
C1914       C  0.97210026  0.00748750  0.98592330     0.02900
C1915       C  0.80802405  0.15908666  0.33660054     0.02900
C1916       C  0.82915685  0.14590839  0.32128966     0.02900
C1917       C  0.86175496  0.17026024  0.30376084     0.02900
C1918       C  0.87079016  0.20621134  0.29530917     0.02900
C1919       C  0.84659204  0.21791657  0.30236171     0.02900
C1920       C  0.81593096  0.19272875  0.32362974     0.02900
C1921       C  0.63153587  0.30616605  0.65044867     0.02900
C1922       C  0.63856744  0.33993655  0.66264118     0.02900
C1923       C  0.67123258  0.36470081  0.68094041     0.02900
C1924       C  0.69776562  0.35610269  0.68581276     0.02900
C1925       C  0.69090648  0.32231854  0.67335130     0.02900
C1926       C  0.65824601  0.29773340  0.65450482     0.02900
C1927       C  0.58684639  0.37293909  0.60439553     0.24200
C1928       C  0.56933467  0.37765090  0.63817775    -0.23900
C1929       C  0.57288688  0.36794660  0.67954011     0.19100
C1930       C  0.59395653  0.35354413  0.68708718     0.24100
C1931       C  0.61276212  0.35039376  0.65373588    -0.23900
C1932       C  0.60933718  0.36007634  0.61238628     0.19000
F1933       F  0.62861313  0.35812271  0.58034019    -0.13800
F1934       F  0.58298293  0.38182231  0.56430527    -0.16200
F1935       F  0.59641164  0.34310012  0.72685047    -0.16200
F1936       F  0.55537041  0.37170716  0.71241133    -0.13800
C1937       C  0.74603658  0.29399705  0.73391970     0.24200
C1938       C  0.76235800  0.28702227  0.70054071    -0.23900
C1939       C  0.75626963  0.29301159  0.65834231     0.19100
C1940       C  0.73407905  0.30599700  0.64962881     0.24100
C1941       C  0.71673630  0.31170304  0.68279775    -0.23900
C1942       C  0.72244239  0.30540483  0.72493773     0.19000
F1943       F  0.70433139  0.30923162  0.75701624    -0.13800
F1944       F  0.75217577  0.28879186  0.77478454    -0.16200
F1945       F  0.72939109  0.31289701  0.60891419    -0.16200
F1946       F  0.77268321  0.28736763  0.62563078    -0.13800
C1947       C  0.74036107  0.39788146  0.73958397     0.24200
C1948       C  0.73379818  0.38489418  0.69778185    -0.23900
C1949       C  0.75496181  0.40705917  0.66511500     0.19100
C1950       C  0.77680551  0.44375494  0.67254239     0.24100
C1951       C  0.77884327  0.45804870  0.71324604    -0.23900
C1952       C  0.76262715  0.43444004  0.74731160     0.19000
F1953       F  0.76456605  0.44710389  0.78727417    -0.13800
F1954       F  0.72060569  0.37653967  0.77172993    -0.16200
F1955       F  0.79328185  0.46519664  0.63917678    -0.16200
F1956       F  0.74968058  0.39432768  0.62466364    -0.13800
C1957       C  0.55592681  0.21739554  0.66581283     0.24200
C1958       C  0.55252620  0.20395402  0.62425609    -0.23900
C1959       C  0.56510933  0.22840283  0.59030926     0.19100
C1960       C  0.58637719  0.26502434  0.59845987     0.24100
C1961       C  0.59509804  0.27722506  0.64038237    -0.23900
C1962       C  0.57617211  0.25418475  0.67355085     0.19000
F1963       F  0.58310787  0.26638211  0.71428001    -0.13800
F1964       F  0.54344769  0.19543256  0.69956193    -0.16200
F1965       F  0.60343482  0.28742302  0.56586019    -0.16200
F1966       F  0.56136505  0.21687400  0.54947698    -0.13800
C1967       C  0.62291489  0.19973889  0.66332117     0.24200
C1968       C  0.62385432  0.18976012  0.62115258    -0.23900
C1969       C  0.63772828  0.21638819  0.58974935     0.19100
C1970       C  0.65072227  0.25213138  0.60078290     0.24100
C1971       C  0.65019669  0.26153318  0.64319857    -0.23900
C1972       C  0.63704195  0.23540035  0.67445183     0.19000
F1973       F  0.63567324  0.24425233  0.71544341    -0.13800
F1974       F  0.60745455  0.17511983  0.69390019    -0.16200
F1975       F  0.66261971  0.27735995  0.57004809    -0.16200
F1976       F  0.63787148  0.20779333  0.54835588    -0.13800
C1977       C  0.68987754  0.44497867  0.74622875     0.24200
C1978       C  0.70800695  0.47258464  0.71664995    -0.23900
C1979       C  0.71101381  0.46349661  0.67472878     0.19100
C1980       C  0.69535910  0.42791483  0.66215626     0.24100
C1981       C  0.67904525  0.40088890  0.69211123    -0.23900
C1982       C  0.67573295  0.40932392  0.73404811     0.19000
F1983       F  0.66078465  0.38325729  0.76366000    -0.13800
F1984       F  0.68716689  0.45245530  0.78731313    -0.16200
F1985       F  0.69884898  0.41988659  0.62150579    -0.16200
F1986       F  0.73107503  0.48878717  0.64641027    -0.13800
C1987       C  0.49195257  0.09648844  0.92405643     0.24200
C1988       C  0.98886128  0.11169575  0.96181694    -0.23900
C1989       C  0.00708096  0.11181064  0.99845774     0.19100
C1990       C  0.02235627  0.09088672  0.99961293     0.24100
C1991       C  0.01759257  0.06867771  0.96478091    -0.23900
C1992       C  0.50680307  0.07493071  0.92551607     0.19000
F1993       F  0.50438792  0.05506683  0.89094403    -0.13800
F1994       F  0.47664383  0.09862365  0.88748212    -0.16200
F1995       F  0.03462904  0.08639679  0.03730818    -0.16200
F1996       F  0.00721191  0.12938699  0.03416816    -0.13800
C1997       C  0.99949411  0.39941584  0.06736050     0.24200
C1998       C  0.50522330  0.38577609  0.02955931    -0.23900
C1999       C  0.49010454  0.38768799  0.99116081     0.19100
C2000       C  0.47563187  0.40927934  0.98858073     0.24100
C2001       C  0.47794765  0.42991154  0.02400315    -0.23900
C2002       C  0.98539451  0.42157681  0.06472567     0.19000
F2003       F  0.98541091  0.43987281  0.09968265    -0.13800
F2004       F  0.01189870  0.39536468  0.10522749    -0.16200
F2005       F  0.46664422  0.41597056  0.94985585    -0.16200
F2006       F  0.49239947  0.37151022  0.95545685    -0.13800
C2007       C  0.62829475  0.08968059  0.00548694     0.24200
C2008       C  0.64165548  0.09563323  0.96424979    -0.23900
C2009       C  0.61904446  0.07949397  0.92919540     0.19100
C2010       C  0.58314085  0.05602403  0.93574972     0.24100
C2011       C  0.57018508  0.04963805  0.97720128    -0.23900
C2012       C  0.59265875  0.06708688  0.01183355     0.19000
F2013       F  0.57998534  0.06229798  0.05180581    -0.13800
F2014       F  0.64955865  0.10684861  0.03956097    -0.16200
F2015       F  0.56116592  0.03918584  0.90212509    -0.16200
F2016       F  0.63181369  0.08604172  0.88916540    -0.13800
C2017       C  0.91606645  0.44833082  0.06124535     0.24200
C2018       C  0.92644554  0.45108837  0.01883639    -0.23900
C2019       C  0.90179184  0.43203559  0.98669855     0.19100
C2020       C  0.86649672  0.41146343  0.99636418     0.24100
C2021       C  0.85576369  0.40830096  0.03866672    -0.23900
C2022       C  0.88057695  0.42631691  0.07130332     0.19000
F2023       F  0.87031987  0.42316079  0.11229672    -0.13800
F2024       F  0.94011514  0.46737819  0.09237388    -0.16200
F2025       F  0.84294610  0.39370686  0.96442126    -0.16200
F2026       F  0.91201511  0.43351304  0.94593985    -0.13800
C2027       C  0.91341880  0.04321884  0.00952208     0.24200
C2028       C  0.89865446  0.04142355  0.96916682    -0.23900
C2029       C  0.90567188  0.52538033  0.93510827     0.19100
C2030       C  0.92880489  0.51296491  0.94081202     0.24100
C2031       C  0.94521325  0.01717965  0.98022877    -0.23900
C2032       C  0.93685702  0.03140793  0.01484378     0.19000
F2033       F  0.95238617  0.03491186  0.05340118    -0.13800
F2034       F  0.90526133  0.05641971  0.04384949    -0.16200
F2035       F  0.93623082  0.49811857  0.90756260    -0.16200
F2036       F  0.89107630  0.52280451  0.89618523    -0.13800
C2037       C  0.58443791  0.95698863  0.98836297     0.24200
C2038       C  0.59630458  0.45755601  0.03007218    -0.23900
C2039       C  0.58650689  0.47213330  0.06308727     0.19100
C2040       C  0.56371685  0.48452499  0.05467215     0.24100
C2041       C  0.55083969  0.48233329  0.01328220    -0.23900
C2042       C  0.56181399  0.96949635  0.98027980     0.19000
F2043       F  0.54942115  0.96774070  0.94017982    -0.13800
F2044       F  0.59469205  0.94442122  0.95536576    -0.16200
F2045       F  0.55303616  0.49726526  0.08699901    -0.16200
F2046       F  0.59787313  0.47304408  0.10350718    -0.13800
C2047       C  0.81677351  0.05361865  0.33522714     0.24200
C2048       C  0.79390074  0.03477639  0.30119602    -0.23900
C2049       C  0.78195606  0.05204164  0.27440873     0.19100
C2050       C  0.79246497  0.08787923  0.28218684     0.24100
C2051       C  0.81557145  0.10693443  0.31627848    -0.23900
C2052       C  0.82837386  0.08955990  0.34192158     0.19000
F2053       F  0.85278683  0.10729146  0.37301603    -0.13800
F2054       F  0.83017183  0.03800096  0.36025002    -0.16200
F2055       F  0.78224862  0.10469224  0.25454418    -0.16200
F2056       F  0.76118256  0.03459721  0.24011059    -0.13800
C2057       C  0.90121755  0.31429603  0.32378224     0.24200
C2058       C  0.87711955  0.31454893  0.35232751    -0.23900
C2059       C  0.84103504  0.29079533  0.34451636     0.19100
C2060       C  0.83067108  0.26597049  0.31153418     0.24100
C2061       C  0.85473557  0.25658673  0.29620527    -0.23900
C2062       C  0.88972791  0.28602086  0.29459499     0.19000
F2063       F  0.91036346  0.29075505  0.26081902    -0.13800
F2064       F  0.93487063  0.34229729  0.32224218    -0.16200
F2065       F  0.79824553  0.25280040  0.29321117    -0.16200
F2066       F  0.81606543  0.29317891  0.36647670    -0.13800
C2067       C  0.71945513  0.11569151  0.39543163     0.24200
C2068       C  0.71540514  0.08235079  0.39628307    -0.23900
C2069       C  0.74598531  0.08138565  0.40073422     0.19100
C2070       C  0.77706218  0.11217911  0.39041983     0.24100
C2071       C  0.77554970  0.13772233  0.36396834    -0.23900
C2072       C  0.74434636  0.14385455  0.36624065     0.19000
F2073       F  0.73602153  0.18684782  0.33167340    -0.13800
F2074       F  0.70679549  0.12301181  0.43080141    -0.16200
F2075       F  0.80808089  0.11749533  0.40600566    -0.16200
F2076       F  0.74588684  0.05183749  0.41472335    -0.13800
C2077       C  0.96585083  0.26583537  0.31953944     0.24200
C2078       C  0.98075946  0.27029096  0.27930643    -0.23900
C2079       C  0.95864423  0.25524583  0.24321431     0.19100
C2080       C  0.92218248  0.23559676  0.24771713     0.24100
C2081       C  0.90785917  0.23172230  0.28806013    -0.23900
C2082       C  0.92962808  0.24759734  0.32365999     0.19000
F2083       F  0.91553854  0.24384973  0.36276693    -0.13800
F2084       F  0.98591939  0.27908970  0.35507442    -0.16200
F2085       F  0.90083811  0.22040106  0.21317041    -0.16200
F2086       F  0.97231892  0.25921640  0.20383331    -0.13800
C2087       C  0.74882108  0.15697566  0.29324145     0.24200
C2088       C  0.78506560  0.19341531  0.32596280    -0.23900
C2089       C  0.77506289  0.20611170  0.37806550     0.19100
C2090       C  0.72886393  0.18392443  0.39610481     0.24100
C2091       C  0.69243547  0.14823533  0.36243709    -0.23900
C2092       C  0.70313358  0.13421272  0.31212182     0.19000
F2093       F  0.67901409  0.10328741  0.29311342    -0.13800
F2094       F  0.75634591  0.14533292  0.25729833    -0.16200
F2095       F  0.72198552  0.19174973  0.43485774    -0.16200
F2096       F  0.80172026  0.22768600  0.40526498    -0.13800
C2097       C  0.94763734  0.18104535  0.33236941     0.24200
C2098       C  0.96078005  0.18372971  0.29137027    -0.23900
C2099       C  0.93656924  0.16837514  0.25698165     0.19100
C2100       C  0.90091479  0.15651372  0.26257759     0.24100
C2101       C  0.88967476  0.16107899  0.30208852    -0.23900
C2102       C  0.91218666  0.16996215  0.33768438     0.19000
F2103       F  0.90158814  0.17438639  0.37634631    -0.13800
F2104       F  0.96950102  0.19297705  0.36675459    -0.16200
F2105       F  0.87898313  0.14679815  0.22818834    -0.16200
F2106       F  0.94786754  0.16915735  0.21699042    -0.13800
O2107       O  0.52757956  0.65491270  0.31217516    -0.87700
C2108       C  0.60424059  0.67453372  0.23147930     0.88300
Mg2109     Mg  0.53053520  0.69076473  0.36156170     1.58100
O2110       O  0.57734641  0.61120006  0.31109980    -0.87500
O2111       O  0.50305912  0.59792637  0.29698765    -0.74800
C2112       C  0.68610396  0.74012016  0.46272447     0.93300
O2113       O  0.58966323  0.73017692  0.28263913    -0.74600
O2114       O  0.67101373  0.75890129  0.45994275    -0.82100
Mg2115     Mg  0.54392242  0.67889381  0.24970752     1.58000
C2116       C  0.65764234  0.62620424  0.37965389     0.93300
O2117       O  0.99753836  0.62992782  0.21762999    -0.80400
H2118       H  0.53775932  0.56993596  0.34157594    -0.05700
C2119       C  0.66258851  0.71219896  0.34809333     0.88200
O2120       O  0.53488395  0.65839664  0.41529227    -0.74900
O2121       O  0.57402195  0.65496874  0.24519427    -0.87700
O2122       O  0.63189917  0.60870142  0.35499538    -0.80500
C2123       C  0.61920729  0.59772181  0.21882251     0.93400
C2124       C  0.98230787  0.59847103  0.20125825     0.93200
Mg2125     Mg  0.62158748  0.65825946  0.41567308     1.58000
O2126       O  0.66998774  0.70812676  0.44732405    -0.80400
O2127       O  0.57361895  0.60848146  0.38174760    -0.74600
O2128       O  0.58834521  0.59310490  0.21011416    -0.80500
O2129       O  0.00955133  0.70334298  0.24738699    -0.82200
O2130       O  0.58198047  0.74825122  0.45147147    -0.80500
C2131       C  0.56210678  0.59558053  0.34436543     0.87700
O2132       O  0.59276401  0.68438951  0.42029810    -0.87700
O2133       O  0.63729704  0.68134947  0.35289145    -0.87800
O2134       O  0.66286651  0.73916123  0.36418136    -0.74800
Mg2135     Mg  0.54485178  0.59722807  0.25442842     1.58000
O2136       O  0.63420745  0.60991766  0.25423905    -0.82200
H2137       H  0.47989021  0.61836929  0.33377756    -0.05900
O2138       O  0.58706939  0.72686481  0.35300561    -0.87500
H2139       H  0.62371202  0.77022880  0.32250231    -0.05700
H2140       H  0.55969813  0.64860931  0.46326169    -0.05900
C2141       C  0.60077143  0.74348998  0.31980806     0.87600
C2142       C  0.50255116  0.62374616  0.31518304     0.88200
C2143       C  0.56235291  0.66384967  0.43508248     0.88300
H2144       H  0.68470380  0.71633711  0.32922104    -0.05900
O2145       O  0.63124497  0.67791948  0.25073892    -0.74900
Mg2146     Mg  0.62337583  0.74292268  0.40745193     1.58000
H2147       H  0.60786227  0.69074273  0.20392273    -0.05900
C2148       C  0.99888220  0.70472111  0.28360098     0.93300
O2149       O  0.53166633  0.72567239  0.41261412    -0.82100
C2150       C  0.54993471  0.74116600  0.44560697     0.93300
O2151       O  0.49896069  0.58128069  0.20123382    -0.82100
Mg2152     Mg  0.63306137  0.64411394  0.30456890     1.58200
O2153       O  0.02185619  0.72159597  0.31241466    -0.80500
O2154       O  0.65237263  0.63095119  0.41733829    -0.82200
C2155       C  0.63997466  0.55699019  0.19339539     0.02900
C2156       C  0.64044142  0.58953000  0.18902588     0.02800
C2157       C  0.66960257  0.61817988  0.16703052    -0.17700
C2158       C  0.69659525  0.61427128  0.14711471     0.02900
C2159       C  0.69303663  0.57975422  0.14919204     0.02800
C2160       C  0.66535146  0.55252682  0.17263855    -0.17700
H2161       H  0.66386797  0.52686885  0.17554827     0.04900
H2162       H  0.67157131  0.64406514  0.16594773     0.04900
C2163       C  0.91345774  0.55506656  0.18283911     0.02900
C2164       C  0.94755728  0.58742077  0.17826155     0.02800
C2165       C  0.94797979  0.61640329  0.15682802    -0.17700
C2166       C  0.91731282  0.61617138  0.14307201     0.02900
C2167       C  0.88413022  0.58496490  0.14683865     0.02800
C2168       C  0.88294539  0.55494955  0.16571790    -0.17700
H2169       H  0.85725394  0.53048163  0.16645907     0.04900
H2170       H  0.97321311  0.64073111  0.15149598     0.04900
O2171       O  0.64866026  0.96592360  0.35458214    -0.87700
C2172       C  0.56807141  0.90016783  0.43164186     0.88300
Mg2173     Mg  0.64598199  0.00261359  0.30990357     1.58100
O2174       O  0.59631457  0.86510983  0.35150685    -0.87500
O2175       O  0.66956152  0.93058731  0.36671679    -0.74800
C2176       C  0.99120436  0.88812718  0.21255722     0.93300
O2177       O  0.58889286  0.98013645  0.39015021    -0.74600
O2178       O  0.50646036  0.92236905  0.21798323    -0.82100
Mg2179     Mg  0.63158155  0.96951168  0.41704707     1.58000
C2180       C  0.01829598  0.79516084  0.27404682     0.93300
O2181       O  0.67369729  0.96461775  0.44786365    -0.80400
H2182       H  0.63637840  0.86542790  0.32171601    -0.05700
C2183       C  0.51489581  0.88128792  0.32413753     0.88200
O2184       O  0.63943723  0.96707071  0.25345994    -0.74900
O2185       O  0.59793105  0.91369695  0.41636998    -0.87700
O2186       O  0.04021615  0.80400397  0.30446841    -0.80500
C2187       C  0.55318335  0.80859882  0.44368584     0.93400
C2188       C  0.68645156  0.94758519  0.46507260     0.93200
Mg2189     Mg  0.55640674  0.87332339  0.24976566     1.58000
O2190       O  0.00712770  0.87173552  0.22332253    -0.80400
O2191       O  0.60342982  0.87118572  0.28138458    -0.74600
O2192       O  0.58186414  0.83850109  0.45242697    -0.80500
O2193       O  0.67269395  0.52594367  0.42042610    -0.82200
O2194       O  0.59166767  0.00303469  0.22354653    -0.80500
C2195       C  0.61264990  0.86679459  0.31859113     0.87700
O2196       O  0.58281713  0.92856567  0.25241497    -0.87700
O2197       O  0.53982741  0.87608034  0.31550398    -0.87800
O2198       O  0.51527078  0.90925694  0.31192092    -0.74800
Mg2199     Mg  0.62664479  0.88557157  0.40855989     1.58000
O2200       O  0.54166298  0.79998719  0.40588407    -0.82200
H2201       H  0.69501763  0.97591361  0.33146808    -0.05900
O2202       O  0.59041262  0.97855392  0.32063697    -0.87500
H2203       H  0.55768289  0.98971450  0.35131735    -0.05700
H2204       H  0.61442640  0.93061310  0.20616817    -0.05900
C2205       C  0.57835245  0.98336273  0.35361435     0.87600
C2206       C  0.67202462  0.95843633  0.35000828     0.88200
C2207       C  0.61196461  0.94202253  0.23552316     0.88300
H2208       H  0.49404599  0.86250349  0.34438180    -0.05900
O2209       O  0.54204407  0.87203680  0.41542839    -0.74900
Mg2210     Mg  0.55347723  0.95456893  0.26827709     1.58000
H2211       H  0.56396133  0.91273843  0.45883788    -0.05900
C2212       C  0.68038487  0.55008629  0.39374018     0.93300
O2213       O  0.64174123  0.53789527  0.26149156    -0.82100
C2214       C  0.62223716  0.03173870  0.22844542     0.93300
O2215       O  0.66894204  0.91327281  0.46414195    -0.82100
Mg2216     Mg  0.54100603  0.83774620  0.35911139     1.58200
O2217       O  0.66020740  0.54521735  0.36205280    -0.80500
O2218       O  0.02722249  0.81396077  0.24124059    -0.82200
O2219       O  0.82905913  0.86697619  0.35201409    -0.87700
C2220       C  0.84069889  0.93977104  0.43918633     0.88300
Mg2221     Mg  0.87198225  0.87454950  0.30913295     1.58100
O2222       O  0.77853709  0.91516825  0.35696850    -0.87500
O2223       O  0.77198320  0.84260033  0.36216920    -0.74800
C2224       C  0.90444632  0.52191455  0.20830190     0.93300
O2225       O  0.89841786  0.93026763  0.39024791    -0.74600
O2226       O  0.92274381  0.00647200  0.20990932    -0.82100
Mg2227     Mg  0.84782073  0.87895557  0.41736004     1.58000
C2228       C  0.78852840  0.49977190  0.29060465     0.93300
O2229       O  0.79875162  0.82899452  0.44536715    -0.80400
H2230       H  0.73650927  0.87738264  0.32440171    -0.05700
C2231       C  0.87892688  0.00232375  0.32503981     0.88200
O2232       O  0.84025280  0.87483470  0.25075117    -0.74900
O2233       O  0.82266781  0.90920045  0.42380888    -0.87700
O2234       O  0.77528240  0.47505881  0.31751436    -0.80500
C2235       C  0.75888897  0.95115664  0.45054534     0.93400
C2236       C  0.76800131  0.81521959  0.46155891     0.93200
Mg2237     Mg  0.82692127  0.96032116  0.25730898     1.58000
O2238       O  0.87423500  0.50709432  0.22562639    -0.80400
O2239       O  0.77615160  0.91281948  0.28669512    -0.74600
O2240       O  0.75718229  0.92071262  0.45657120    -0.80500
O2241       O  0.87139909  0.84232039  0.41412323    -0.82200
O2242       O  0.91849773  0.92019898  0.21981987    -0.80500
C2243       C  0.76263969  0.90104979  0.32307186     0.87700
O2244       O  0.85287724  0.93046448  0.25267994    -0.87700
O2245       O  0.84840095  0.97647574  0.32061366    -0.87800
O2246       O  0.90499547  0.00290603  0.30718827    -0.74800
Mg2247     Mg  0.76620812  0.87998664  0.40986569     1.58000
O2248       O  0.77152830  0.96887457  0.41675239    -0.82200
H2249       H  0.79281122  0.82304642  0.32029813    -0.05900
O2250       O  0.89853573  0.93015751  0.31968343    -0.87500
H2251       H  0.93713924  0.96973743  0.35475834    -0.05700
H2252       H  0.82211753  0.89602202  0.20693802    -0.05900
C2253       C  0.91231547  0.94443102  0.35454131     0.87600
C2254       C  0.79801217  0.84351087  0.34365962     0.88200
C2255       C  0.83786469  0.90052695  0.23534223     0.88300
H2256       H  0.88357229  0.02497562  0.34435770    -0.05900
O2257       O  0.84181343  0.96677419  0.42209623    -0.74900
Mg2258     Mg  0.91001387  0.96256137  0.26398686     1.58000
H2259       H  0.85714056  0.94383449  0.46679091    -0.05900
C2260       C  0.88803567  0.84574633  0.38055848     0.93300
O2261       O  0.91555791  0.88007734  0.26594662    -0.82100
C2262       C  0.92194785  0.89303211  0.22892727     0.93300
O2263       O  0.75146410  0.83256142  0.46025390    -0.82100
Mg2264     Mg  0.80951107  0.97115217  0.36758868     1.58200
O2265       O  0.90427920  0.87611036  0.36428591    -0.80500
O2266       O  0.80491969  0.49739551  0.25937619    -0.82200
C2267       C  0.92546546  0.86993342  0.19574752     0.02900
C2268       C  0.95512823  0.86515973  0.19187343     0.02800
C2269       C  0.95013410  0.83440076  0.16933666    -0.17700
C2270       C  0.91826448  0.80878716  0.14866919     0.02900
C2271       C  0.88863247  0.81381721  0.15208319     0.02800
C2272       C  0.89319872  0.84386756  0.17603510    -0.17700
H2273       H  0.87053151  0.84716182  0.17936855     0.04900
H2274       H  0.97283994  0.83123701  0.16552076     0.04900
O2275       O  0.80243732  0.01388223  0.02239989    -0.87700
C2276       C  0.76902880  0.58309871  0.02502868     0.88300
Mg2277     Mg  0.80382811  0.98659607  0.96731872     1.58100
O2278       O  0.72208448  0.49718431  0.07240648    -0.87500
O2279       O  0.79385824  0.00442762  0.09010360    -0.74800
C2280       C  0.64283976  0.91631251  0.88242967     0.93300
O2281       O  0.80015933  0.56035542  0.94879125    -0.74600
O2282       O  0.67162041  0.92047802  0.86704271    -0.82100
Mg2283     Mg  0.82763710  0.57131514  0.01576431     1.58000
C2284       C  0.62008731  0.94452681  0.03823172     0.93300
O2285       O  0.85500019  0.57894075  0.08121872    -0.80400
H2286       H  0.72011216  0.95999575  0.11136951    -0.05700
C2287       C  0.68861198  0.49795084  0.94861961     0.88200
O2288       O  0.75822905  0.93273916  0.98903463    -0.74900
O2289       O  0.78226322  0.56750160  0.04518753    -0.87700
O2290       O  0.64652129  0.46210636  0.06251201    -0.80500
C2291       C  0.70997311  0.56584705  0.12094968     0.93400
C2292       C  0.85275963  0.57999813  0.12145860     0.93200
Mg2293     Mg  0.66788529  0.92783481  0.98794343     1.58000
O2294       O  0.63980107  0.91896964  0.92227008    -0.80400
O2295       O  0.69460620  0.93893312  0.05520866    -0.74600
O2296       O  0.74065346  0.57011101  0.12888739    -0.80500
O2297       O  0.87688746  0.57801527  0.98936900    -0.82200
O2298       O  0.75543711  0.92826727  0.87854631    -0.80500
C2299       C  0.71250976  0.96540579  0.08087412     0.87700
O2300       O  0.71260843  0.93234345  0.96012132    -0.87700
O2301       O  0.69176736  0.48532370  0.98219617    -0.87800
O2302       O  0.69980083  0.49257636  0.91420487    -0.74800
Mg2303     Mg  0.76834037  0.53737312  0.10628032     1.58000
O2304       O  0.68937336  0.54431591  0.09248485    -0.82200
H2305       H  0.81786054  0.98440668  0.05427912    -0.05900
O2306       O  0.77214014  0.50191676  0.93305693    -0.87500
H2307       H  0.77324560  0.53844708  0.89352951    -0.05700
H2308       H  0.70835266  0.88952060  0.98927712    -0.05900
C2309       C  0.78149083  0.53349093  0.92386502     0.87600
C2310       C  0.80552924  0.00041188  0.05531611     0.88200
C2311       C  0.72562476  0.91675316  0.97888006     0.88300
H2312       H  0.67630861  0.51399503  0.94861885    -0.05900
O2313       O  0.73639033  0.56700835  0.01521271    -0.74900
Mg2314     Mg  0.72626060  0.95994431  0.90011443     1.58000
H2315       H  0.78633447  0.61007189  0.01385727    -0.05900
C2316       C  0.87454830  0.55445441  0.96414111     0.93300
O2317       O  0.80688048  0.95728779  0.91402497    -0.82100
C2318       C  0.78704648  0.93495252  0.88603940     0.93300
O2319       O  0.82411432  0.57451442  0.13897721    -0.82100
Mg2320     Mg  0.69082895  0.51337163  0.03774152     1.58200
O2321       O  0.84729635  0.03734282  0.94122104    -0.80500
O2322       O  0.61831237  0.92039301  0.01440004    -0.82200
O2323       O  0.70706395  0.69425506  0.02127723    -0.87700
C2324       C  0.81030799  0.73416910  0.02888502     0.88300
Mg2325     Mg  0.67856173  0.69175714  0.96466827     1.58100
O2326       O  0.77186070  0.77874659  0.07619693    -0.87500
O2327       O  0.70784908  0.70380893  0.08935252    -0.74800
C2328       C  0.77265760  0.85748421  0.88688856     0.93300
O2329       O  0.75832577  0.70129074  0.95024292    -0.74600
O2330       O  0.74839479  0.82770378  0.87010751    -0.82100
Mg2331     Mg  0.74125076  0.67256852  0.01588919     1.58000
C2332       C  0.81918966  0.88346011  0.04763731     0.93300
O2333       O  0.71950155  0.64185788  0.08003340    -0.80400
H2334       H  0.73468857  0.77714674  0.11371070    -0.05700
C2335       C  0.80661353  0.81321809  0.95465944     0.88200
O2336       O  0.67008338  0.73675082  0.98725130    -0.74900
O2337       O  0.78114457  0.71916322  0.04641402    -0.87700
O2338       O  0.81119554  0.85661339  0.07033312    -0.80500
C2339       C  0.85562478  0.79615512  0.12499336     0.93400
C2340       C  0.72393432  0.64484155  0.12027089     0.93200
Mg2341     Mg  0.75584262  0.83145996  0.99228198     1.58000
O2342       O  0.77689748  0.86097560  0.92718037    -0.80400
O2343       O  0.73954459  0.80310377  0.05840688    -0.74600
O2344       O  0.82979979  0.76343459  0.12975068    -0.80500
O2345       O  0.70014172  0.62149536  0.98526959    -0.82200
O2346       O  0.66987151  0.74065410  0.87660629    -0.80500
C2347       C  0.74847676  0.78604536  0.08401389     0.87700
O2348       O  0.71622451  0.78482694  0.96170034    -0.87700
O2349       O  0.79062064  0.81033511  0.98771526    -0.87800
O2350       O  0.79021294  0.80086844  0.91970666    -0.74800
Mg2351     Mg  0.76705298  0.73182888  0.10652710     1.58000
O2352       O  0.85303603  0.81739865  0.09970917    -0.82200
H2353       H  0.66273721  0.67862027  0.05370309    -0.05900
O2354       O  0.72646940  0.72617307  0.93314938    -0.87500
H2355       H  0.76354118  0.72787786  0.89537844    -0.05700
H2356       H  0.67661966  0.78646844  0.98989408    -0.05900
C2357       C  0.74968576  0.71875590  0.92500830     0.87600
C2358       C  0.69124818  0.69148170  0.05447122     0.88200
C2359       C  0.68700396  0.77009022  0.97907155     0.88300
H2360       H  0.83513749  0.82625732  0.95560451    -0.05900
O2361       O  0.82737937  0.76769325  0.02164371    -0.74900
Mg2362     Mg  0.73120843  0.77225060  0.90187562     1.58000
H2363       H  0.82065760  0.71795186  0.01736447    -0.05900
C2364       C  0.67861991  0.62170194  0.95888802     0.93300
O2365       O  0.64588294  0.68789256  0.90939413    -0.82100
C2366       C  0.64409946  0.70820809  0.88205303     0.93300
O2367       O  0.74830164  0.67467676  0.13722965    -0.82100
Mg2368     Mg  0.81953027  0.81321673  0.04427777     1.58200
O2369       O  0.68736454  0.64923516  0.93735771    -0.80500
O2370       O  0.79638756  0.88316677  0.02296802    -0.82200
O2371       O  0.99789506  0.79036420  0.97319306    -0.87700
C2372       C  0.58543482  0.78222770  0.97474472     0.88300
Mg2373     Mg  0.96933678  0.79733261  0.02947464     1.58100
O2374       O  0.50212312  0.72324198  0.92567771    -0.87500
O2375       O  0.00001697  0.79002739  0.90377882    -0.74800
C2376       C  0.92208070  0.64602106  0.11630015     0.93300
O2377       O  0.54870098  0.80538130  0.04996619    -0.74600
O2378       O  0.91998050  0.67246818  0.13107788    -0.82100
Mg2379     Mg  0.55614768  0.82901553  0.98133307     1.58000
C2380       C  0.96808140  0.62857335  0.96324210     0.93300
O2381       O  0.56384517  0.85320729  0.91556638    -0.80400
H2382       H  0.96271838  0.71626716  0.88687788    -0.05700
C2383       C  0.50563445  0.70210683  0.05597394     0.88200
O2384       O  0.91766991  0.74712336  0.00984653    -0.74900
O2385       O  0.56503139  0.78916782  0.95580140    -0.87700
O2386       O  0.47579153  0.65372646  0.93874493    -0.80500
C2387       C  0.57140517  0.71065899  0.88199037     0.93400
C2388       C  0.57158329  0.85174419  0.87716869     0.93200
Mg2389     Mg  0.93766747  0.66844885  0.01244904     1.58000
O2390       O  0.92984218  0.64449465  0.07796381    -0.80400
O2391       O  0.94520591  0.69212668  0.94384373    -0.74600
O2392       O  0.57376238  0.74091364  0.87243721    -0.80500
O2393       O  0.54636620  0.87349201  0.00000710    -0.82200
O2394       O  0.92165877  0.75655564  0.12408402    -0.80500
C2395       C  0.97000318  0.71086432  0.91757769     0.87700
O2396       O  0.92843482  0.70813599  0.03825044    -0.87700
O2397       O  0.49550272  0.70752206  0.02074218    -0.87800
O2398       O  0.49363040  0.70699659  0.09006098    -0.74800
Mg2399     Mg  0.53903210  0.76941678  0.89368467     1.58000
O2400       O  0.55340838  0.69263975  0.91334530    -0.82200
H2401       H  0.96911285  0.80425482  0.93585297    -0.05900
O2402       O  0.99178018  0.77406341  0.06818246    -0.87500
H2403       H  0.53130211  0.78129339  0.10698997    -0.05700
H2404       H  0.88189647  0.69359217  0.01025837    -0.05900
C2405       C  0.52395566  0.78660470  0.07627352     0.87600
C2406       C  0.98788130  0.79532633  0.93758574     0.88200
C2407       C  0.90794119  0.71515168  0.01969284     0.88300
H2408       H  0.52439496  0.69315929  0.05713314    -0.05900
O2409       O  0.57556578  0.75034826  0.98520739    -0.74900
Mg2410     Mg  0.95501757  0.72782825  0.10034801     1.58000
H2411       H  0.61148436  0.80381870  0.98410916    -0.05900
C2412       C  0.52621256  0.86910711  0.03024280     0.93300
O2413       O  0.94070339  0.80474145  0.08336479    -0.82100
C2414       C  0.92419643  0.78702255  0.11574091     0.93300
O2415       O  0.57352201  0.82514452  0.86241576    -0.82100
Mg2416     Mg  0.52404619  0.70018577  0.96532901     1.58200
O2417       O  0.01791207  0.84393341  0.05483619    -0.80500
O2418       O  0.94886678  0.62458145  0.99438912    -0.82200
O2419       O  0.66216308  0.52692605  0.69165180    -0.87700
C2420       C  0.67043947  0.60597869  0.76735997     0.88300
Mg2421     Mg  0.70198995  0.53335663  0.64728592     1.58100
O2422       O  0.60857715  0.57322251  0.68467266    -0.87500
O2423       O  0.60479112  0.50170217  0.69910368    -0.74800
C2424       C  0.73277587  0.67967234  0.54558199     0.93300
O2425       O  0.73271301  0.59607713  0.72499896    -0.74600
O2426       O  0.75154417  0.66489791  0.54677350    -0.82100
Mg2427     Mg  0.68284576  0.54808171  0.75480573     1.58000
C2428       C  0.61489729  0.65300454  0.61124633     0.93300
O2429       O  0.63526505  0.00034481  0.78341788    -0.80400
H2430       H  0.56596874  0.53284589  0.65562030    -0.05700
C2431       C  0.70504426  0.66092477  0.65596743     0.88200
O2432       O  0.66821570  0.53166645  0.59052610    -0.74900
O2433       O  0.65527005  0.57529454  0.75206503    -0.87700
O2434       O  0.60107400  0.62846647  0.63846458    -0.80500
C2435       C  0.58994238  0.61143398  0.77619515     0.93400
C2436       C  0.60385482  0.98490392  0.79730745     0.93200
Mg2437     Mg  0.65399723  0.61501679  0.58613481     1.58000
O2438       O  0.70147984  0.66270946  0.55933744    -0.80400
O2439       O  0.60361401  0.56695203  0.61485216    -0.74600
O2440       O  0.59242231  0.58391618  0.78505671    -0.80500
O2441       O  0.71029427  0.01656101  0.76239076    -0.82200
O2442       O  0.74411422  0.57862757  0.55440853    -0.80500
C2443       C  0.59161619  0.55686557  0.65217025     0.87700
O2444       O  0.68124068  0.58745199  0.58832849    -0.87700
O2445       O  0.67456786  0.63553027  0.64919391    -0.87800
O2446       O  0.73196333  0.66084752  0.64182359    -0.74800
Mg2447     Mg  0.59882627  0.54222085  0.74062406     1.58000
O2448       O  0.59396735  0.62323930  0.73884092    -0.82200
H2449       H  0.62779907  0.47856676  0.66689684    -0.05900
O2450       O  0.72810125  0.58951230  0.65511816    -0.87500
H2451       H  0.77033222  0.63024262  0.68427125    -0.05700
H2452       H  0.64943293  0.55082519  0.54508430    -0.05900
C2453       C  0.74480463  0.60606287  0.68768172     0.87600
C2454       C  0.63168551  0.50142299  0.68523835     0.88200
C2455       C  0.66592907  0.55671976  0.57310190     0.88300
H2456       H  0.70890479  0.68351842  0.67484236    -0.05900
O2457       O  0.66824901  0.63101482  0.74978247    -0.74900
Mg2458     Mg  0.73790978  0.62079962  0.59936556     1.58000
H2459       H  0.68674385  0.61184920  0.79555042    -0.05900
C2460       C  0.72115050  0.01025967  0.72857270     0.93300
O2461       O  0.74292863  0.53960310  0.60087021    -0.82100
C2462       C  0.74652751  0.55099019  0.56332640     0.93300
O2463       O  0.58553790  0.50007146  0.79431121    -0.82100
Mg2464     Mg  0.63471756  0.62938109  0.69281159     1.58200
O2465       O  0.73558285  0.03506299  0.70179250    -0.80500
O2466       O  0.62831511  0.64790928  0.57893726    -0.82200
C2467       C  0.61355590  0.68910170  0.85211397     0.02900
C2468       C  0.58131181  0.68990929  0.85226130     0.02800
C2469       C  0.55182589  0.66169605  0.83028065    -0.17700
C2470       C  0.55278537  0.63340184  0.80934242     0.02900
C2471       C  0.58433427  0.63290158  0.80881512     0.02800
C2472       C  0.61418313  0.66101137  0.82950597    -0.17700
H2473       H  0.63871638  0.66085741  0.82828278     0.04900
H2474       H  0.52720951  0.66172338  0.82925562     0.04900
C2475       C  0.61386294  0.91402947  0.85428884     0.02900
C2476       C  0.57965531  0.88346563  0.85158226     0.02800
C2477       C  0.55134777  0.88635529  0.83343518    -0.17700
C2478       C  0.55610101  0.91892899  0.81631517     0.02900
C2479       C  0.59134713  0.94961457  0.81839890     0.02800
C2480       C  0.61879277  0.94623245  0.83798526    -0.17700
H2481       H  0.64502166  0.96980193  0.84159632     0.04900
H2482       H  0.52509054  0.86262871  0.83248632     0.04900
O2483       O  0.96347867  0.63860135  0.64967658    -0.87700
C2484       C  0.90045199  0.56284409  0.56799655     0.88300
Mg2485     Mg  0.99665060  0.63362557  0.69542768     1.58100
O2486       O  0.86507225  0.58575170  0.65186517    -0.87500
O2487       O  0.93052791  0.66240041  0.64239088    -0.74800
C2488       C  0.88671970  0.97879333  0.79356681     0.93300
O2489       O  0.97069458  0.57451046  0.61344611    -0.74600
O2490       O  0.92052315  0.49387747  0.79050198    -0.82100
Mg2491     Mg  0.96726372  0.62211282  0.58526803     1.58000
C2492       C  0.79731749  0.99694269  0.72085094     0.93300
O2493       O  0.96709238  0.67071636  0.55798135    -0.80400
H2494       H  0.86068839  0.62298826  0.68404835    -0.05700
C2495       C  0.87890747  0.49933213  0.68005219     0.88200
O2496       O  0.96212779  0.62829748  0.75138371    -0.74900
O2497       O  0.91284149  0.59289305  0.58441584    -0.87700
O2498       O  0.80300813  0.01947212  0.69205820    -0.80500
C2499       C  0.81074906  0.54817846  0.55913615     0.93400
C2500       C  0.95104782  0.68616027  0.54408644     0.93200
Mg2501     Mg  0.87039876  0.54168479  0.75050509     1.58000
O2502       O  0.87169152  0.99488722  0.77881894    -0.80400
O2503       O  0.86621359  0.58855373  0.72209111    -0.74600
O2504       O  0.83827850  0.57946228  0.55296946    -0.80500
O2505       O  0.52613724  0.65379715  0.57924873    -0.82200
O2506       O  0.99790542  0.58294002  0.78280112    -0.80500
C2507       C  0.86354145  0.59975252  0.68562102     0.87700
O2508       O  0.92463444  0.57068599  0.75107835    -0.87700
O2509       O  0.87389370  0.52441251  0.68678019    -0.87800
O2510       O  0.90616309  0.49991305  0.69447402    -0.74800
Mg2511     Mg  0.88620668  0.62177996  0.59822024     1.58000
O2512       O  0.80553294  0.53093310  0.59321556    -0.82200
H2513       H  0.97631115  0.68558913  0.67674441    -0.05900
O2514       O  0.97169935  0.57670891  0.68379248    -0.87500
H2515       H  0.97554495  0.53938239  0.65103694    -0.05700
H2516       H  0.92590248  0.60294244  0.79732812    -0.05900
C2517       C  0.97305692  0.56284945  0.64980025     0.87600
C2518       C  0.95787939  0.66322017  0.65693883     0.88200
C2519       C  0.93740655  0.60040635  0.76838313     0.88300
H2520       H  0.86005869  0.47678442  0.66077069    -0.05900
O2521       O  0.87611126  0.53495466  0.58554407    -0.74900
Mg2522     Mg  0.95066600  0.54091159  0.73794440     1.58000
H2523       H  0.91213952  0.56004168  0.53936883    -0.05900
C2524       C  0.53863651  0.66576455  0.61543652     0.93300
O2525       O  0.53190810  0.63043792  0.74183536    -0.82100
C2526       C  0.02579747  0.61375126  0.77640333     0.93300
O2527       O  0.91707265  0.66987179  0.54700489    -0.82100
Mg2528     Mg  0.84071659  0.52888666  0.64078984     1.58200
O2529       O  0.53383010  0.64314802  0.64372542    -0.80500
O2530       O  0.81188369  0.00862570  0.75634738    -0.82200
O2531       O  0.97346428  0.84700694  0.68994425    -0.87700
C2532       C  0.93852082  0.91507037  0.69676481     0.88300
Mg2533     Mg  0.97485645  0.81953488  0.63331530     1.58100
O2534       O  0.89101025  0.83011481  0.74298792    -0.87500
O2535       O  0.96403685  0.83893726  0.75792834    -0.74800
C2536       C  0.80962860  0.74867118  0.55145570     0.93300
O2537       O  0.96826562  0.89231526  0.61838249    -0.74600
O2538       O  0.83866779  0.75402682  0.53496229    -0.82100
Mg2539     Mg  0.99683005  0.90451531  0.68493903     1.58000
C2540       C  0.78732363  0.77551121  0.70876419     0.93300
O2541       O  0.52757920  0.91436830  0.74954079    -0.80400
H2542       H  0.88973234  0.79270339  0.78105853    -0.05700
C2543       C  0.85837483  0.83094933  0.61857551     0.88200
O2544       O  0.92877605  0.76560043  0.65497576    -0.74900
O2545       O  0.95189135  0.89943898  0.71465540    -0.87700
O2546       O  0.81361576  0.79391031  0.73292480    -0.80500
C2547       C  0.87621351  0.89734982  0.79253058     0.93400
C2548       C  0.02556889  0.91628502  0.78992809     0.93200
Mg2549     Mg  0.83699687  0.76046326  0.65724142     1.58000
O2550       O  0.80747839  0.75089505  0.59162165    -0.80400
O2551       O  0.86426120  0.77214407  0.72468185    -0.74600
O2552       O  0.90808115  0.90369547  0.79914787    -0.80500
O2553       O  0.54658615  0.91340248  0.65611015    -0.82200
O2554       O  0.92562897  0.76062453  0.54323376    -0.80500
C2555       C  0.88193081  0.79836938  0.75084875     0.87700
O2556       O  0.88223938  0.76514849  0.62843937    -0.87700
O2557       O  0.86073770  0.81792407  0.65226806    -0.87800
O2558       O  0.86956315  0.82534050  0.58422350    -0.74800
Mg2559     Mg  0.93856300  0.87205892  0.77484180     1.58000
O2560       O  0.85610918  0.87522312  0.76419077    -0.82200
H2561       H  0.98675685  0.81666771  0.72363850    -0.05900
O2562       O  0.94230451  0.83437681  0.59989796    -0.87500
H2563       H  0.94197505  0.87138156  0.56256119    -0.05700
H2564       H  0.87876677  0.72275215  0.65783373    -0.05900
C2565       C  0.95056018  0.86596754  0.59237513     0.87600
C2566       C  0.97539663  0.83357183  0.72355643     0.88200
C2567       C  0.89578155  0.74978633  0.64666667     0.88300
H2568       H  0.84669404  0.84756415  0.61837417    -0.05900
O2569       O  0.90564628  0.89930691  0.68792229    -0.74900
Mg2570     Mg  0.89544161  0.79238562  0.56779821     1.58000
H2571       H  0.95563121  0.94227006  0.68616202    -0.05900
C2572       C  0.54540382  0.89038348  0.63077881     0.93300
O2573       O  0.97776496  0.78916062  0.57754877    -0.82100
C2574       C  0.95744494  0.76681565  0.54941168     0.93300
O2575       O  0.99642440  0.91051905  0.80680958    -0.82100
Mg2576     Mg  0.85905011  0.84541352  0.70866950     1.58200
O2577       O  0.51841504  0.87193747  0.60777800    -0.80500
O2578       O  0.78702813  0.75261331  0.68396517    -0.82200
C2579       C  0.80558974  0.92204638  0.85917707     0.02900
C2580       C  0.80034494  0.88721498  0.85992612     0.02800
C2581       C  0.82681976  0.88243203  0.84079627    -0.17700
C2582       C  0.85779333  0.91062836  0.82049501     0.02900
C2583       C  0.86225652  0.94586003  0.81973694     0.02800
C2584       C  0.83621964  0.94992098  0.84054113    -0.17700
H2585       H  0.83968861  0.97652259  0.84237465     0.04900
H2586       H  0.82305048  0.85572743  0.84135529     0.04900
C2587       C  0.53150604  0.78177833  0.47659765     0.02900
C2588       C  0.53047689  0.74911528  0.47743140     0.02800
C2589       C  0.50206124  0.71948650  0.49723874    -0.17700
C2590       C  0.97461566  0.72063025  0.51957360     0.02900
C2591       C  0.97592046  0.75465744  0.51968249     0.02800
C2592       C  0.50423919  0.78397772  0.49714377    -0.17700
H2593       H  0.50508457  0.80934916  0.49575266     0.04900
H2594       H  0.50101267  0.69406712  0.49417639     0.04900
C2595       C  0.75551392  0.78033740  0.48557997     0.02900
C2596       C  0.71979288  0.74994915  0.48867891     0.02800
C2597       C  0.71587903  0.72012750  0.51160576    -0.17700
C2598       C  0.74399172  0.71570818  0.52648746     0.02900
C2599       C  0.77912467  0.74539752  0.52453776     0.02800
C2600       C  0.78366792  0.77697365  0.50478024    -0.17700
H2601       H  0.81032231  0.80008818  0.50500633     0.04900
H2602       H  0.68912642  0.69762076  0.51483372     0.04900
C2603       C  0.71977283  0.97075593  0.48974329     0.02900
C2604       C  0.75225523  0.97143202  0.48460039     0.02800
C2605       C  0.78299932  0.50047154  0.50413251    -0.17700
C2606       C  0.78269623  0.52861292  0.52694413     0.02900
C2607       C  0.75086386  0.52851238  0.53052063     0.02800
C2608       C  0.72002852  0.49909089  0.51301137    -0.17700
H2609       H  0.69524477  0.49821809  0.51777537     0.04900
H2610       H  0.80785732  0.50112040  0.50177535     0.04900
C2611       C  0.96303408  0.97578372  0.00695000     0.02900
C2612       C  0.98851740  0.96715548  0.01546558     0.02900
C2613       C  0.52382989  0.49147899  0.00494929     0.02900
C2614       C  0.53312507  0.52352926  0.98455439     0.02900
C2615       C  0.00743754  0.53177659  0.97554824     0.02900
C2616       C  0.97208719  0.50745755  0.98616326     0.02900
C2617       C  0.80793908  0.65909775  0.33691189     0.02900
C2618       C  0.82907922  0.64595766  0.32155600     0.02900
C2619       C  0.86168292  0.67035519  0.30411518     0.02900
C2620       C  0.87070896  0.70630833  0.29570027     0.02900
C2621       C  0.84649030  0.71798430  0.30279072     0.02900
C2622       C  0.81582489  0.69274856  0.32401138     0.02900
C2623       C  0.63155208  0.80632626  0.65046562     0.02900
C2624       C  0.63869509  0.84013042  0.66270917     0.02900
C2625       C  0.67140443  0.86481615  0.68098687     0.02900
C2626       C  0.69787964  0.85612897  0.68574098     0.02900
C2627       C  0.69087926  0.82229420  0.67331513     0.02900
C2628       C  0.65818184  0.79777868  0.65450766     0.02900
C2629       C  0.58703860  0.87317715  0.60438459     0.24200
C2630       C  0.56957586  0.87799250  0.63814472    -0.23900
C2631       C  0.57322144  0.86844486  0.67955822     0.19100
C2632       C  0.59429182  0.85404933  0.68716528     0.24100
C2633       C  0.61298703  0.85072230  0.65380887    -0.23900
C2634       C  0.60951995  0.86031126  0.61242550     0.19000
F2635       F  0.62873754  0.85824892  0.58038374    -0.13800
F2636       F  0.58311601  0.88193664  0.56425363    -0.16200
F2637       F  0.59683005  0.84375447  0.72698269    -0.16200
F2638       F  0.55576113  0.87230889  0.71241841    -0.13800
C2639       C  0.74570925  0.79365105  0.73393851     0.24200
C2640       C  0.76219265  0.78686054  0.70058937    -0.23900
C2641       C  0.75621593  0.79296256  0.65839140     0.19100
C2642       C  0.73402485  0.80593917  0.64965116     0.24100
C2643       C  0.71659922  0.81155270  0.68278997    -0.23900
C2644       C  0.72213913  0.80508222  0.72492104     0.19000
F2645       F  0.70391462  0.80879993  0.75694763    -0.13800
F2646       F  0.75169175  0.78827419  0.77479792    -0.16200
F2647       F  0.72943912  0.81294982  0.60894591    -0.16200
F2648       F  0.77276031  0.78746296  0.62571453    -0.13800
C2649       C  0.74074327  0.89782610  0.73935909     0.24200
C2650       C  0.73398667  0.88486890  0.69754579    -0.23900
C2651       C  0.75502811  0.90705077  0.66481296     0.19100
C2652       C  0.77689182  0.94374829  0.67223746     0.24100
C2653       C  0.77907047  0.95802116  0.71299269    -0.23900
C2654       C  0.76303521  0.93438238  0.74708347     0.19000
F2655       F  0.76514510  0.94700806  0.78710423    -0.13800
F2656       F  0.72113298  0.87646260  0.77156891    -0.16200
F2657       F  0.79321691  0.96521146  0.63883495    -0.16200
F2658       F  0.74958204  0.89433990  0.62434100    -0.13800
C2659       C  0.55589558  0.71763984  0.66584766     0.24200
C2660       C  0.55254094  0.70416946  0.62431422    -0.23900
C2661       C  0.56513732  0.72859346  0.59034354     0.19100
C2662       C  0.58638235  0.76522414  0.59846229     0.24100
C2663       C  0.59508006  0.77745825  0.64037930    -0.23900
C2664       C  0.57611719  0.75443971  0.67355015     0.19000
F2665       F  0.58302157  0.76666779  0.71426748    -0.13800
F2666       F  0.54340847  0.69569511  0.69961446    -0.16200
F2667       F  0.60346576  0.78759423  0.56584948    -0.16200
F2668       F  0.56144843  0.71703464  0.54953044    -0.13800
C2669       C  0.62276764  0.69976183  0.66337300     0.24200
C2670       C  0.62376055  0.68977932  0.62122098    -0.23900
C2671       C  0.63763603  0.71639671  0.58980443     0.19100
C2672       C  0.65060996  0.75213983  0.60081388     0.24100
C2673       C  0.65003551  0.76154636  0.64321264    -0.23900
C2674       C  0.63684931  0.73542169  0.67447551     0.19000
F2675       F  0.63544069  0.74428388  0.71545079    -0.13800
F2676       F  0.60732045  0.67514920  0.69396452    -0.16200
F2677       F  0.66255673  0.77736616  0.57007453    -0.16200
F2678       F  0.63782597  0.70779391  0.54842441    -0.13800
C2679       C  0.69039984  0.94516435  0.74637110     0.24200
C2680       C  0.70832519  0.97273298  0.71669508    -0.23900
C2681       C  0.71115600  0.96360396  0.67473072     0.19100
C2682       C  0.69549995  0.92801548  0.66220640     0.24100
C2683       C  0.67933160  0.90102464  0.69222309    -0.23900
C2684       C  0.67622464  0.90949881  0.73421688     0.19000
F2685       F  0.66140105  0.88345579  0.76387331    -0.13800
F2686       F  0.68788958  0.95269547  0.78749746    -0.16200
F2687       F  0.69881104  0.91994831  0.62150696    -0.16200
F2688       F  0.73098974  0.98886678  0.64627771    -0.13800
C2689       C  0.49203249  0.59661858  0.92382322     0.24200
C2690       C  0.98899288  0.61172170  0.96198533    -0.23900
C2691       C  0.00713248  0.61177878  0.99867667     0.19100
C2692       C  0.02237525  0.59082427  0.99987302     0.24100
C2693       C  0.01763510  0.56862766  0.96503869    -0.23900
C2694       C  0.50684591  0.57502393  0.92515430     0.19000
F2695       F  0.50439761  0.55521625  0.89050956    -0.13800
F2696       F  0.47672317  0.59884623  0.88729932    -0.16200
F2697       F  0.03457769  0.58628509  0.03759512    -0.16200
F2698       F  0.00720367  0.62931978  0.03439080    -0.13800
C2699       C  0.99962196  0.89958843  0.06734525     0.24200
C2700       C  0.50519597  0.88583773  0.02996840    -0.23900
C2701       C  0.48981777  0.88765431  0.99174034     0.19100
C2702       C  0.47540204  0.90930186  0.98933936     0.24100
C2703       C  0.47797349  0.93002992  0.02478146    -0.23900
C2704       C  0.98556894  0.92178836  0.06466891     0.19000
F2705       F  0.98564726  0.94015741  0.09958647    -0.13800
F2706       F  0.01204448  0.89556896  0.10521648    -0.16200
F2707       F  0.46620118  0.91592290  0.95070942    -0.16200
F2708       F  0.49179206  0.87131099  0.95600266    -0.13800
C2709       C  0.62821139  0.58966757  0.00517966     0.24200
C2710       C  0.64168279  0.59565467  0.96400019    -0.23900
C2711       C  0.61917315  0.57949620  0.92886599     0.19100
C2712       C  0.58325408  0.55598988  0.93529270     0.24100
C2713       C  0.57019085  0.54957900  0.97669300    -0.23900
C2714       C  0.59257137  0.56701681  0.01140020     0.19000
F2715       F  0.57980719  0.56215592  0.05133032    -0.13800
F2716       F  0.64937170  0.60686428  0.03931987    -0.16200
F2717       F  0.56136864  0.53914017  0.90160106    -0.16200
F2718       F  0.63205164  0.58606737  0.88888789    -0.13800
C2719       C  0.91615627  0.94839546  0.06109389     0.24200
C2720       C  0.92651614  0.95112908  0.01867891    -0.23900
C2721       C  0.90184957  0.93205138  0.98656239     0.19100
C2722       C  0.86655930  0.91148394  0.99625325     0.24100
C2723       C  0.85584386  0.90835522  0.03856026    -0.23900
C2724       C  0.88067148  0.92639064  0.07117706     0.19000
F2725       F  0.87043047  0.92327680  0.11217309    -0.13800
F2726       F  0.94021532  0.96747433  0.09220056    -0.16200
F2727       F  0.84299380  0.89371915  0.96432736    -0.16200
F2728       F  0.91205362  0.93352022  0.94579575    -0.13800
C2729       C  0.91347981  0.54331640  0.00962456     0.24200
C2730       C  0.89872546  0.54149655  0.96925399    -0.23900
C2731       C  0.90560445  0.02534700  0.93498187     0.19100
C2732       C  0.92875786  0.01295123  0.94063263     0.24100
C2733       C  0.94523020  0.51718970  0.98042775    -0.23900
C2734       C  0.93688842  0.53147061  0.01500303     0.19000
F2735       F  0.95241406  0.53500544  0.05357023    -0.13800
F2736       F  0.90534253  0.55657679  0.04391182    -0.16200
F2737       F  0.93617871  0.99813021  0.90735172    -0.16200
F2738       F  0.89100077  0.02280213  0.89607200    -0.13800
C2739       C  0.58465754  0.45708788  0.98819766     0.24200
C2740       C  0.59625586  0.95747857  0.03015279    -0.23900
C2741       C  0.58664741  0.97213169  0.06328046     0.19100
C2742       C  0.56389170  0.98459786  0.05506591     0.24100
C2743       C  0.55084222  0.98238208  0.01376923    -0.23900
C2744       C  0.56202102  0.46954709  0.97990741     0.19000
F2745       F  0.54981452  0.46782979  0.93971532    -0.13800
F2746       F  0.59508321  0.44457731  0.95531767    -0.16200
F2747       F  0.55340446  0.99742423  0.08750219    -0.16200
F2748       F  0.59817818  0.97306200  0.10362001    -0.13800
C2749       C  0.81678444  0.55369159  0.33537540     0.24200
C2750       C  0.79391134  0.53485369  0.30134460    -0.23900
C2751       C  0.78193624  0.55211050  0.27458787     0.19100
C2752       C  0.79242334  0.58793991  0.28239400     0.24100
C2753       C  0.81553256  0.60699194  0.31648604    -0.23900
C2754       C  0.82837026  0.58962617  0.34208878     0.19000
F2755       F  0.85279984  0.60736058  0.37316749    -0.13800
F2756       F  0.83018524  0.53807021  0.36039000    -0.16200
F2757       F  0.78218055  0.60474766  0.25477931    -0.16200
F2758       F  0.76114171  0.53466314  0.24030492    -0.13800
C2759       C  0.90120972  0.81443016  0.32403522     0.24200
C2760       C  0.87724671  0.81474085  0.35276015    -0.23900
C2761       C  0.84113155  0.79093620  0.34523930     0.19100
C2762       C  0.83061289  0.76603833  0.31232687     0.24100
C2763       C  0.85461250  0.75665637  0.29675557    -0.23900
C2764       C  0.88958886  0.78609148  0.29491143     0.19000
F2765       F  0.91008883  0.79072262  0.26102556    -0.13800
F2766       F  0.93486061  0.84241610  0.32229300    -0.16200
F2767       F  0.79814762  0.75294027  0.29414791    -0.16200
F2768       F  0.81626181  0.79337192  0.36736692    -0.13800
C2769       C  0.71936988  0.61552896  0.39568965     0.24200
C2770       C  0.71537613  0.58221134  0.39646629    -0.23900
C2771       C  0.74597989  0.58129113  0.40090791     0.19100
C2772       C  0.77703521  0.61213211  0.39066470     0.24100
C2773       C  0.77548466  0.63768215  0.36426418    -0.23900
C2774       C  0.74425113  0.64375418  0.36655368     0.19000
F2775       F  0.73585791  0.68673389  0.33205956    -0.13800
F2776       F  0.70664233  0.62275679  0.43106479    -0.16200
F2777       F  0.80806726  0.61747450  0.40623866    -0.16200
F2778       F  0.74592182  0.55174135  0.41480944    -0.13800
C2779       C  0.96580133  0.76595773  0.31975250     0.24200
C2780       C  0.98066712  0.77034264  0.27950333    -0.23900
C2781       C  0.95851071  0.75524951  0.24345438     0.19100
C2782       C  0.92205336  0.73561868  0.24801914     0.24100
C2783       C  0.90777155  0.73182215  0.28837855    -0.23900
C2784       C  0.92958413  0.74775019  0.32393105     0.19000
F2785       F  0.91554489  0.74406419  0.36305792    -0.13800
F2786       F  0.98590258  0.77921716  0.35525772    -0.16200
F2787       F  0.90067398  0.72034968  0.21351565    -0.16200
F2788       F  0.97214180  0.75912902  0.20406064    -0.13800
C2789       C  0.74873458  0.65695346  0.29357457     0.24200
C2790       C  0.78493670  0.69338840  0.32634055    -0.23900
C2791       C  0.77488748  0.70599887  0.37846726     0.19100
C2792       C  0.72868319  0.68372983  0.39648972     0.24100
C2793       C  0.69229251  0.64805061  0.36278321    -0.23900
C2794       C  0.70304087  0.63410544  0.31243886     0.19000
F2795       F  0.67901886  0.60311538  0.29348112    -0.13800
F2796       F  0.75629900  0.64537185  0.25761118    -0.16200
F2797       F  0.72177876  0.69143912  0.43528450    -0.16200
F2798       F  0.80152202  0.72756600  0.40569544    -0.13800
C2799       C  0.94754181  0.68112051  0.33274089     0.24200
C2800       C  0.96060407  0.68369789  0.29172384    -0.23900
C2801       C  0.93634989  0.66823745  0.25739121     0.19100
C2802       C  0.90073980  0.65647210  0.26300814     0.24100
C2803       C  0.88958688  0.66117990  0.30249197    -0.23900
C2804       C  0.91211234  0.67009475  0.33808130     0.19000
F2805       F  0.90154431  0.67458550  0.37673127    -0.13800
F2806       F  0.96946328  0.69315287  0.36707296    -0.16200
F2807       F  0.87879052  0.64673563  0.22863483    -0.16200
F2808       F  0.94756615  0.66884940  0.21739568    -0.13800
loop_ 
_geom_bond_atom_site_label_1 
_geom_bond_atom_site_label_2 
_geom_bond_distance 
_geom_bond_site_symmetry_2 
_ccdc_geom_bond_type 
O1           Mg3   2.155       .  S
O1           Mg9   2.182       .  S
O1           C36   1.236       .  S
C2           O15   1.238       .  S
C2           O39   1.270       .  A
C2           H41   1.081       .  S
Mg3          O32   2.177       .  S
Mg3          O43   2.191       .  S
Mg3          O14   2.275       .  S
Mg3        O1451   2.208       .  S
O4          Mg46   2.126       .  S
O4          Mg29   2.159       .  S
O4           C25   1.250       .  S
O5           C36   1.269       .  A
O5          Mg29   2.303       .  S
C6            O8   1.294       .  A
C6           O20   1.283       .  A
C6          C490   1.542       .  S
O7           C35   1.281       .  A
O7           Mg9   2.330       .  S
O8          Mg40   2.460       .  S
Mg9          O15   2.070       .  S
Mg9        O1427   2.221       .  S
Mg9        O1415   2.288   1_455  S
C10          O48   1.250       .  A
C10          O16   1.249       .  A
C10         C687   1.430       .  S
O11          C18   1.277       .  A
O11       Mg1413   2.298       .  S
H12          C25   1.081       .  S
C13          O27   1.237       .  S
C13          O28   1.270       .  A
C13          H38   1.081       .  S
O14          C37   1.265       .  A
O15         Mg29   2.175       .  S
O16         Mg46   2.200       .  S
C17          O30   1.259       .  A
C17          O22   1.295       .  A
C17          C50   1.498       .  S
C18        O1449   1.291       .  A
C18          C58   1.524       .  S
Mg19         O27   2.176       .  S
Mg19         O20   2.330       .  S
Mg19         O21   2.351       .  S
Mg19         O48   2.216       .  S
Mg19         O26   2.100       .  S
O21          C25   1.285       .  A
O22         Mg29   2.464       .  S
O23          C42   1.253       .  A
O23       Mg1413   2.217       .  S
O24          C44   1.293       .  A
O24         Mg40   2.407       .  S
O26         Mg40   2.224       .  S
O26          C37   1.263       .  A
O27         Mg46   2.155       .  S
O28         Mg40   2.293       .  S
Mg29         O45   2.422   1_455  S
O30         Mg46   2.190       .  S
H31          C36   1.081   1_655  S
O32         Mg40   2.187       .  S
O32          C35   1.246       .  S
H33          C35   1.081       .  S
H34          C37   1.081       .  S
O39         Mg46   2.277       .  S
C42          O47   1.266       .  A
C42         C694   1.474       .  S
O43          C44   1.267       .  A
C44         C482   1.477       .  S
O45        C1422   1.290       .  A
O47       Mg1407   2.209       .  S
C49         C810   1.481       .  S
C49          C50   1.411       .  A
C49          C54   1.398       .  A
C50          C51   1.436       .  A
C51          H56   1.084       .  S
C51          C52   1.436       .  A
C52         C234   1.522       .  S
C52          C53   1.428       .  A
C53         C185   1.480       .  S
C53          C54   1.406       .  A
C54          H55   1.087       .  S
C57         C118   1.518       .  S
C57          C58   1.446       .  A
C57          C62   1.442       .  A
C58          C59   1.424       .  A
C59          H64   1.086       .  S
C59          C60   1.411       .  A
C60         C270   1.474       .  S
C60          C61   1.399       .  A
C61         C186   1.506       .  S
C61          C62   1.413       .  A
C62          H63   1.084       .  S
O65         Mg67   2.179       .  S
O65         Mg73   2.150       .  S
O65         C100   1.239       .  S
C66          O79   1.237       .  S
C66         O103   1.270       .  A
C66         H105   1.081       .  S
Mg67         O96   2.143       .  S
Mg67         O78   2.270       .  S
Mg67        O813   2.302       .  S
Mg67        O809   2.248       .  S
O68        Mg110   2.109       .  S
O68         Mg93   2.129       .  S
O68          C89   1.250       .  S
O69         C100   1.275       .  A
O69         Mg93   2.326       .  S
C70          O84   1.275       .  A
C70        O1476   1.286       .  A
C70         C162   1.514       .  S
O71          C99   1.273       .  A
O71         Mg73   2.311       .  S
O72        C1474   1.286   1_455  A
O72        Mg104   2.389       .  S
Mg73         O79   2.093       .  S
Mg73         O75   2.193       .  S
Mg73        O789   2.181       .  S
C74         O112   1.256       .  A
C74          O80   1.264       .  A
C74         C674   1.453       .  S
O75          C82   1.258       .  A
H76          C89   1.081       .  S
C77          O92   1.269       .  A
C77         H102   1.078   1_455  S
C77          O91   1.263       .  A
O78         C101   1.264       .  A
O79         Mg93   2.180       .  S
O80       Mg1514   2.250       .  S
C81          O94   1.268       .  A
C81          O86   1.290       .  A
C81         C481   1.494       .  S
C82         O109   1.279       .  A
C82         C497   1.492       .  S
Mg83         O90   2.061       .  S
Mg83         O85   2.336       .  S
Mg83       O1488   2.287       .  S
Mg83       O1516   2.223       .  S
Mg83         O91   2.229       .  S
O84       Mg1487   2.287       .  S
O85          C89   1.285       .  A
O86         Mg93   2.432       .  S
O87         C106   1.253       .  A
O87        Mg775   2.180   1_545  S
O88         C108   1.289       .  A
O88        Mg104   2.384       .  S
O90        Mg104   2.171       .  S
O90         C101   1.233       .  S
O91        Mg110   2.185       .  S
O92        Mg104   2.294       .  S
Mg93        O109   2.368       .  S
O94        Mg110   2.221       .  S
H95         C100   1.081       .  S
O96        Mg104   2.157       .  S
O96          C99   1.238       .  S
H97          C99   1.081       .  S
H98         C101   1.081       .  S
O103       Mg110   2.300       .  S
C106        O111   1.273       .  A
C106        C664   1.455       .  S
O107        C810   1.275       .  A
O107       Mg769   2.249       .  S
C108        O809   1.275       .  A
C108        C751   1.480       .  S
Mg110      O1484   2.251       .  S
O111       Mg769   2.303       .  S
O112      Mg1487   2.223       .  S
O113       Mg115   2.221       .  S
O113       Mg121   2.172       .  S
O113        C148   1.240       .  S
C114        O127   1.238       .  S
C114        O151   1.271       .  A
C114        H153   1.081       .  S
Mg115       O144   2.097       .  S
Mg115       O159   2.215       .  S
Mg115       O155   2.276       .  S
Mg115       O126   2.305       .  S
O116       Mg158   2.113       .  S
O116       Mg141   2.145       .  S
O116        C137   1.244       .  S
O117        C148   1.275       .  A
O117       Mg141   2.320       .  S
C118        O132   1.274       .  A
C118        O822   1.287       .  A
O119        C147   1.286       .  A
O119       Mg121   2.370       .  S
O120        C820   1.287       .  A
O120       Mg152   2.410       .  S
Mg121       O127   2.122       .  S
Mg121       O135   2.309       .  S
Mg121       O123   2.323       .  S
C122        O160   1.262       .  A
C122        O128   1.260       .  A
C122        C644   1.456   1_565  S
O123        C130   1.280       .  A
H124        C137   1.081       .  S
C125        O139   1.238       .  S
C125        O140   1.273       .  A
C125        H150   1.081       .  S
O126        C149   1.272       .  A
O127       Mg141   2.173       .  S
O128       Mg860   2.243       .  S
C129        O142   1.271       .  A
C129        O134   1.301       .  A
C129        C498   1.510       .  S
C130        O157   1.291       .  A
C130        C489   1.528       .  S
Mg131       O138   2.132       .  S
Mg131       O139   2.155       .  S
Mg131       O133   2.331       .  S
Mg131       O834   2.275       .  S
Mg131       O862   2.267       .  S
O132       Mg833   2.276   1_545  S
O133        C137   1.280       .  A
O134       Mg141   2.486       .  S
O135        C154   1.259       .  A
O136        C156   1.298       .  A
O136       Mg152   2.484       .  S
O138       Mg152   2.187       .  S
O138        C149   1.238       .  S
O139       Mg158   2.198       .  S
O140       Mg152   2.317       .  S
Mg141       O157   2.422       .  S
O142       Mg158   2.258       .  S
H143        C148   1.081       .  S
O144       Mg152   2.152       .  S
O144        C147   1.248       .  S
H145        C147   1.081       .  S
H146        C149   1.081       .  S
O151       Mg158   2.291       .  S
C154        O159   1.248       .  A
C154        C654   1.461       .  S
O155        C156   1.268       .  A
C156        C161   1.511       .  S
Mg158       O830   2.243       .  S
O160       Mg833   2.267       .  S
C161        C162   1.432       .  A
C161        C166   1.418       .  A
C162        C163   1.424       .  A
C163        H168   1.086       .  S
C163        C164   1.416       .  A
C164        C308   1.515       .  S
C164        C165   1.436       .  A
C165        C233   1.502       .  S
C165        C166   1.427       .  A
C166        H167   1.086       .  S
O169       Mg171   2.119   1_554  S
O169       Mg879   2.157       .  S
O169        C204   1.234       .  S
C170        O207   1.268       .  A
C170        H209   1.081       .  S
C170        O183   1.267       .  A
Mg171       O902   2.121       .  S
Mg171       O215   2.216       .  S
Mg171       O211   2.153       .  S
Mg171       O182   2.278       .  S
O172       Mg214   2.135   1_565  S
O172       Mg197   2.151   1_565  S
O172        C895   1.249       .  S
O173        C204   1.266       .  A
O173       Mg899   2.288       .  S
C174        O176   1.286       .  A
C174        O188   1.276       .  A
C174        C369   1.509       .  S
O175        C203   1.285       .  A
O175       Mg177   2.346   1_556  S
O176       Mg208   2.349       .  S
Mg177       O871   2.157       .  S
Mg177       O191   2.208   1_554  S
Mg177       O179   2.316       .  S
Mg177       O183   2.141       .  S
C178        O216   1.257       .  A
C178        O886   1.258       .  A
C178        C634   1.445       .  S
O179        C186   1.277       .  A
H180        C193   1.081       .  S
C181        O195   1.234       .  S
C181        O196   1.266       .  A
C181        H206   1.081   1_565  S
O182        C205   1.270       .  A
O183       Mg197   2.241       .  S
O184        C880   1.257       .  A
O184       Mg214   2.226   1_565  S
C185        O198   1.269       .  A
C185        O190   1.289       .  A
C186        O213   1.289       .  A
Mg187       O194   2.082       .  S
Mg187       O897   2.163       .  S
Mg187       O188   2.329       .  S
Mg187       O189   2.341   1_556  S
Mg187       O216   2.211   1_556  S
O189        C193   1.284       .  A
O190       Mg197   2.412       .  S
O191        C210   1.255       .  A
O192        C212   1.288       .  A
O192       Mg208   2.418       .  S
C193        O874   1.249       .  S
O194       Mg208   2.164       .  S
O194        C205   1.239       .  S
O195       Mg214   2.144   1_566  S
O195       Mg889   2.163       .  S
O196       Mg910   2.295       .  S
Mg197       O213   2.360       .  S
Mg197       O875   2.288       .  S
O198       Mg214   2.207       .  S
H199        C204   1.081       .  S
O200       Mg873   2.121   1_545  S
O200       Mg910   2.152   1_545  S
O200        C203   1.249       .  S
H201        C203   1.081       .  S
H202        C205   1.081       .  S
O207       Mg214   2.280       .  S
Mg208       O902   2.152       .  S
Mg208       O898   2.295       .  S
C210        O917   1.253       .  A
C210        C624   1.447       .  S
O211        C212   1.261       .  A
C212        C473   1.478       .  S
O215        C912   1.253       .  A
O217       Mg219   2.143   1_554  S
O217       Mg225   2.158       .  S
O217        C252   1.235       .  S
C218        O231   1.240       .  S
C218        O255   1.273       .  A
C218        H257   1.081       .  S
Mg219       O248   2.119       .  S
Mg219       O263   2.245       .  S
Mg219       O259   2.201       .  S
Mg219       O230   2.284       .  S
O220       Mg262   2.119       .  S
O220       Mg245   2.166       .  S
O220        C241   1.251       .  S
O221        C252   1.268       .  A
O221       Mg245   2.299       .  S
C222        O224   1.288       .  A
C222        O236   1.280       .  A
C222        C474   1.513       .  S
O223        C251   1.285       .  A
O223       Mg225   2.345   1_556  S
O224       Mg256   2.354       .  S
Mg225       O231   2.100       .  S
Mg225       O239   2.226   1_554  S
Mg225       O227   2.353       .  S
C226        O264   1.260       .  A
C226        O232   1.260       .  A
C226        C617   1.441       .  S
O227        C234   1.278       .  A
H228        C241   1.081       .  S
C229        O243   1.235       .  S
C229        O244   1.267       .  A
C229        H254   1.081       .  S
O230        C253   1.272       .  A
O231       Mg245   2.157       .  S
O232       Mg262   2.253       .  S
C233        O246   1.270       .  A
C233        O238   1.296       .  A
C234        O261   1.293       .  A
Mg235       O242   2.097       .  S
Mg235       O243   2.160       .  S
Mg235       O236   2.357       .  S
Mg235       O237   2.350   1_556  S
Mg235       O264   2.236   1_556  S
O237        C241   1.287       .  A
O238       Mg245   2.473       .  S
O239        C258   1.259       .  A
O240        C260   1.291       .  A
O240       Mg256   2.441       .  S
O242       Mg256   2.164       .  S
O242        C253   1.240       .  S
O243       Mg262   2.147   1_556  S
O244       Mg256   2.295       .  S
Mg245       O261   2.391       .  S
O246       Mg262   2.222       .  S
H247        C252   1.081       .  S
O248       Mg256   2.148       .  S
O248        C251   1.249       .  S
H249        C251   1.081       .  S
H250        C253   1.081       .  S
O255       Mg262   2.290       .  S
C258        O263   1.256       .  A
C258        C604   1.438       .  S
O259        C260   1.267       .  A
C260        C361   1.487       .  S
O265       Mg267   2.294   1_556  S
O265      Mg1677   2.241       .  S
O265        C300   1.262       .  A
C266        O279   1.235       .  S
C266        O303   1.267       .  A
C266        H305   1.081       .  S
Mg267       O296   2.123       .  S
Mg267       O311   2.195       .  S
Mg267       O307   2.246       .  S
Mg267       O278   2.276       .  S
O268       Mg310   2.117       .  S
O268       Mg293   2.094       .  S
O268       C1693   1.251   1_455  S
O269        C300   1.270       .  A
O269      Mg1697   2.335       .  S
C270        O272   1.286       .  A
C270        O284   1.271       .  A
O271        C299   1.285       .  A
O271       Mg273   2.352   1_554  S
O272       Mg304   2.311       .  S
Mg273       O279   2.120       .  S
Mg273       O287   2.263   1_556  S
Mg273       O275   2.277       .  S
Mg273      O1669   2.240   1_455  S
C274        O312   1.257       .  A
C274       O1684   1.236       .  A
C274        C584   1.443       .  S
O275        C282   1.272       .  A
H276        C289   1.081       .  S
C277        O292   1.268   1_455  A
C277        H302   1.080       .  S
C277        O291   1.261   1_455  A
O278        C301   1.267       .  A
O279       Mg293   2.195       .  S
O280       C1678   1.236       .  A
O280       Mg310   2.200   1_655  S
C281        O294   1.266       .  A
C281        O286   1.301       .  A
C281        C362   1.514       .  S
C282        O309   1.288       .  A
C282        C370   1.479       .  S
Mg283       O290   2.126       .  S
Mg283       O284   2.266       .  S
Mg283       O285   2.352   1_554  S
Mg283       O312   2.273   1_554  S
Mg283      O1695   2.231       .  S
O285        C289   1.285       .  A
O286       Mg293   2.509       .  S
O287        C306   1.257       .  A
O288        C308   1.298       .  A
O288       Mg304   2.487       .  S
C289       O1672   1.251       .  S
O290       Mg304   2.202       .  S
O290        C301   1.235       .  S
O291       Mg310   2.279   1_654  S
O291      Mg1687   2.231       .  S
O292      Mg1708   2.326       .  S
Mg293       O309   2.327       .  S
Mg293      O1673   2.335       .  S
O294       Mg310   2.225       .  S
H295        C300   1.080       .  S
O296       Mg304   2.096       .  S
O296       C1703   1.251       .  S
H297        C299   1.081       .  S
H298        C301   1.081       .  S
C299       O1700   1.251   1_455  S
O303       Mg310   2.274       .  S
Mg304      O1696   2.326       .  S
C306       O1715   1.237       .  A
C306        C594   1.442       .  S
O307        C308   1.269       .  A
O311       C1710   1.238       .  A
O313       Mg315   2.161       .  S
O313       Mg321   2.175       .  S
O313        C348   1.239       .  S
C314        O327   1.237       .  S
C314        O351   1.270       .  A
C314        H353   1.081       .  S
Mg315       O344   2.108       .  S
Mg315       O355   2.242       .  S
Mg315       O326   2.293       .  S
Mg315      O1061   2.231       .  S
O316       Mg358   2.109       .  S
O316       Mg341   2.133       .  S
O316        C337   1.244       .  S
O317        C348   1.274       .  A
O317       Mg341   2.314       .  S
C318        O320   1.282       .  A
C318        O332   1.266       .  A
C318        C492   1.509       .  S
O319        C347   1.279       .  A
O319       Mg321   2.325       .  S
O320       Mg352   2.376       .  S
Mg321       O327   2.088       .  S
Mg321      O1037   2.257       .  S
Mg321      O1025   2.261       .  S
C322        O360   1.258       .  A
C322        O328   1.263       .  A
C322        C564   1.469       .  S
O323        C330   1.272       .  A
O323      Mg1023   2.262       .  S
H324        C337   1.081       .  S
C325        O339   1.239       .  S
C325        O340   1.274       .  A
C325        H350   1.081       .  S
O326        C349   1.270       .  A
O327       Mg341   2.164       .  S
O328       Mg358   2.241       .  S
C329        O342   1.264       .  A
C329        O334   1.287       .  A
C329        C365   1.492       .  S
C330       O1059   1.279       .  A
C330        C373   1.498       .  S
Mg331       O338   2.088       .  S
Mg331       O339   2.167       .  S
Mg331       O332   2.232       .  S
Mg331       O333   2.324       .  S
Mg331       O360   2.245       .  S
O333        C337   1.279       .  A
O334       Mg341   2.418       .  S
O335        C354   1.259       .  A
O335      Mg1023   2.258       .  S
O336        C356   1.291       .  A
O336       Mg352   2.439       .  S
O338       Mg352   2.171       .  S
O338        C349   1.238       .  S
O339       Mg358   2.149       .  S
O340       Mg352   2.313       .  S
Mg341       O357   2.346       .  S
O342       Mg358   2.229       .  S
H343        C348   1.081   1_565  S
O344       Mg352   2.135       .  S
O344        C347   1.245       .  S
H345        C347   1.081       .  S
H346        C349   1.081       .  S
O351       Mg358   2.293       .  S
C354        O359   1.262       .  A
C354        C574   1.471       .  S
O355        C356   1.265       .  A
C356        C501   1.500       .  S
O357       C1032   1.279   1_545  A
O359      Mg1017   2.231       .  S
C361        C362   1.440       .  A
C361        C366   1.424       .  A
C362        C363   1.418       .  A
C363        H368   1.086       .  S
C363        C364   1.414       .  A
C364       C1824   1.466       .  S
C364        C365   1.402       .  A
C365        C366   1.404       .  A
C366        H367   1.086       .  S
C369        C370   1.408       .  A
C369        C374   1.402       .  A
C370        C371   1.431       .  A
C371        H376   1.084       .  S
C371        C372   1.429       .  A
C372       C1846   1.530       .  S
C372        C373   1.436       .  A
C373        C374   1.427       .  A
C374        H375   1.085       .  S
O377       Mg379   2.134       .  S
O377       Mg385   2.188       .  S
O377        C412   1.237       .  S
C378        O391   1.236       .  S
C378        O415   1.267       .  A
C378        H417   1.081       .  S
Mg379       O408   2.156       .  S
Mg379       O390   2.276       .  S
Mg379      O1827   2.206       .  S
Mg379      O1823   2.179       .  S
O380       Mg422   2.154       .  S
O380       Mg405   2.175       .  S
O380        C401   1.244       .  S
O381        C412   1.269       .  A
O381       Mg405   2.292       .  S
C382        O396   1.272       .  A
C382       O1086   1.287       .  A
C382        C477   1.527       .  S
O383        C411   1.280       .  A
O383       Mg385   2.329       .  S
O384       C1084   1.287       .  A
O384       Mg416   2.442   1_565  S
Mg385       O391   2.057       .  S
Mg385       O387   2.289       .  S
Mg385      O1803   2.233       .  S
C386        O424   1.253       .  A
C386        O392   1.267       .  A
C386        C547   1.471       .  S
O387        C394   1.276       .  A
H388        C401   1.081       .  S
C389        O403   1.237   1_565  S
C389        O404   1.268       .  A
C389        H414   1.081       .  S
O390        C413   1.266       .  A
O391       Mg405   2.160       .  S
O392      Mg1124   2.222       .  S
C393        O406   1.266       .  A
C393        O398   1.292       .  A
C393        C500   1.473       .  S
C394        O421   1.290       .  A
C394        C484   1.531       .  S
Mg395       O402   2.050       .  S
Mg395       O403   2.178       .  S
Mg395       O397   2.320       .  S
Mg395      O1098   2.254   1_545  S
Mg395      O1126   2.225       .  S
O396      Mg1097   2.255       .  S
O397        C401   1.278       .  A
O398       Mg405   2.409       .  S
O399        C418   1.251       .  A
O399      Mg1789   2.234   1_455  S
O400        C420   1.288       .  A
O400       Mg416   2.384       .  S
O402       Mg416   2.167       .  S
O402        C413   1.235       .  S
O403       Mg422   2.129       .  S
O404       Mg416   2.288   1_565  S
Mg405       O421   2.444       .  S
O406       Mg422   2.181       .  S
H407        C412   1.081       .  S
O408       Mg416   2.183       .  S
O408        C411   1.245       .  S
H409        C411   1.081       .  S
H410        C413   1.081       .  S
O415       Mg422   2.275       .  S
C418        O423   1.266       .  A
C418        C554   1.477       .  S
O419       C1824   1.266       .  A
O419      Mg1783   2.179   1_455  S
C420       O1823   1.266       .  A
C420       C1768   1.466       .  S
Mg422      O1094   2.221       .  S
O423      Mg1783   2.206   1_455  S
O424      Mg1097   2.225       .  S
O425       Mg427   2.164       .  S
O425       Mg433   2.166       .  S
O425        C460   1.235       .  S
C426        O439   1.239       .  S
C426        O463   1.271       .  A
C426        H465   1.081       .  S
Mg427       O456   2.124       .  S
Mg427       O467   2.239       .  S
Mg427       O438   2.287       .  S
Mg427      O1875   2.244       .  S
O428       Mg470   2.130       .  S
O428       Mg453   2.177       .  S
O428        C449   1.250       .  S
O429        C460   1.269       .  A
O429       Mg453   2.299       .  S
C430        O432   1.293       .  A
C430        O444   1.278       .  A
C430        C493   1.526       .  S
O431        C459   1.286       .  A
O431       Mg433   2.351       .  S
O432       Mg464   2.399       .  S
Mg433       O439   2.107       .  S
Mg433      O1851   2.225       .  S
Mg433      O1839   2.353       .  S
C434        O472   1.258       .  A
C434        O440   1.260       .  A
C434        C534   1.447       .  S
O435       C1846   1.278       .  A
O435      Mg1837   2.353   1_455  S
H436        C449   1.081       .  S
C437        O451   1.234       .  S
C437        O452   1.269       .  A
C437        H462   1.081       .  S
O438        C461   1.272       .  A
O439       Mg453   2.164       .  S
O440       Mg470   2.244       .  S
C441        O454   1.269       .  A
C441        O446   1.299       .  A
C441        C476   1.505       .  S
C442        O469   1.296       .  A
C442       O1839   1.278       .  A
C442       C1776   1.530       .  S
Mg443       O450   2.113       .  S
Mg443       O451   2.162       .  S
Mg443       O444   2.352       .  S
Mg443       O445   2.354       .  S
Mg443       O472   2.224       .  S
O445        C449   1.286       .  A
O446       Mg453   2.490       .  S
O447        C466   1.258       .  A
O447      Mg1837   2.225   1_455  S
O448        C468   1.297       .  A
O448       Mg464   2.486       .  S
O450       Mg464   2.175       .  S
O450        C461   1.240       .  S
O451       Mg470   2.163       .  S
O452       Mg464   2.304       .  S
Mg453       O469   2.422       .  S
O454       Mg470   2.219       .  S
H455        C460   1.081       .  S
O456       Mg464   2.165       .  S
O456        C459   1.251       .  S
H457        C459   1.081       .  S
H458        C461   1.081       .  S
O463       Mg470   2.285       .  S
C466        O471   1.257       .  A
C466        C524   1.437       .  S
O467        C468   1.271       .  A
C468        C485   1.509       .  S
O471      Mg1831   2.243   1_455  S
C473        C474   1.409       .  A
C473        C478   1.405       .  A
C474        C475   1.426       .  A
C475        H480   1.085       .  S
C475        C476   1.442       .  A
C476        C477   1.440       .  A
C477        C478   1.415       .  A
C478        H479   1.087       .  S
C481        C482   1.397       .  A
C481        C486   1.417       .  A
C482        C483   1.407       .  A
C483        H488   1.086       .  S
C483       C1888   1.425   1_455  A
C484        C485   1.450       .  A
C484       C1887   1.425       .  A
C485       C1890   1.435       .  A
C486        H487   1.085       .  S
C486       C1889   1.435   1_455  A
C489        C490   1.448       .  A
C489        C494   1.449       .  A
C490        C491   1.419       .  A
C491        H496   1.084       .  S
C491        C492   1.423       .  A
C492        C493   1.419       .  A
C493        C494   1.428       .  A
C494        H495   1.084       .  S
C497        C498   1.428       .  A
C497       C1204   1.428       .  A
C498       C1201   1.423       .  A
C499        H504   1.085       .  S
C499        C500   1.423       .  A
C499       C1200   1.423   1_545  A
C500        C501   1.407       .  A
C501        C502   1.407   1_545  A
C502        H503   1.085       .  S
C502       C1199   1.428       .  A
C505        C614   1.455       .  S
C505        C506   1.379       .  A
C505       C1212   1.394   1_554  A
C506       C2001   1.461       .  S
C506       C2613   1.403       .  A
C507       C1339   1.458       .  S
C507        C508   1.395   1_564  A
C507       C2612   1.403   1_455  A
C508        C607   1.456       .  S
C508       C1913   1.385       .  A
C509        C587   1.464       .  S
C509        C510   1.406       .  A
C509       C1912   1.385       .  A
C510        C627   1.457       .  S
C510       C1207   1.394   1_546  A
C511        C667   1.523       .  S
C511        C512   1.408       .  A
C511        C516   1.382       .  A
C512        C647   1.485       .  S
C512        C513   1.395       .  A
C513        C697   1.476       .  S
C513        C514   1.427       .  A
C514        C677   1.448       .  S
C514        C515   1.417       .  A
C515        C657   1.541       .  S
C515        C516   1.406       .  A
C516        C684   1.379       .  S
C517        C557   1.473       .  S
C517        C518   1.387       .  A
C517        C522   1.406       .  A
C518        C527   1.451       .  S
C518        C519   1.396       .  A
C519        C577   1.467       .  S
C519        C520   1.406       .  A
C520        C544   1.473       .  S
C520        C521   1.392       .  A
C521        C537   1.460       .  S
C521        C522   1.401       .  A
C522        C567   1.466       .  S
C523        C524   1.397       .  A
C523        C528   1.387       .  A
C523        F530   1.358       .  S
C524        C525   1.404       .  A
C525        C526   1.380       .  A
C525        F532   1.357       .  S
C526        C527   1.395       .  A
C526        F531   1.357       .  S
C527        C528   1.402       .  A
C528        F529   1.357       .  S
C533        C534   1.398       .  A
C533        C538   1.390       .  A
C533        F540   1.358       .  S
C534        C535   1.407       .  A
C535        C536   1.383       .  A
C535        F542   1.358       .  S
C536        C537   1.396       .  A
C536        F541   1.358       .  S
C537        C538   1.404       .  A
C538        F539   1.357       .  S
C543        C544   1.400       .  A
C543        C548   1.391       .  A
C543        F550   1.357       .  S
C544        C545   1.401       .  A
C545        C546   1.392       .  A
C545        F552   1.358       .  S
C546        C547   1.406       .  A
C546        F551   1.353       .  S
C547        C548   1.410       .  A
C548        F549   1.358       .  S
C553        C554   1.408       .  A
C553        C558   1.392       .  A
C553        F560   1.351       .  S
C554        C555   1.413       .  A
C555        C556   1.391       .  A
C555        F562   1.358       .  S
C556        C557   1.397       .  A
C556        F561   1.357       .  S
C557        C558   1.400       .  A
C558        F559   1.358       .  S
C563        C564   1.405       .  A
C563        C568   1.383       .  A
C563        F570   1.345       .  S
C564        C565   1.410       .  A
C565        C566   1.393       .  A
C565        F572   1.358       .  S
C566        C567   1.401       .  A
C566        F571   1.358       .  S
C567        C568   1.393       .  A
C568        F569   1.358       .  S
C573        C574   1.409       .  A
C573        C578   1.391       .  A
C573        F580   1.356       .  S
C574        C575   1.406       .  A
C575        C576   1.385       .  A
C575        F582   1.346       .  S
C576        C577   1.394       .  A
C576        F581   1.358       .  S
C577        C578   1.400       .  A
C578        F579   1.357       .  S
C583        C588   1.392   1_655  A
C583       C1988   1.403       .  A
C583        F590   1.358       .  S
C584        C585   1.399       .  A
C584       C1987   1.403       .  A
C585        C586   1.382       .  A
C585        F592   1.357   1_556  S
C586        C587   1.401       .  A
C586        F591   1.357   1_556  S
C587       C1992   1.401       .  A
C588       C1991   1.401       .  A
C588        F589   1.357       .  S
C593        C598   1.391       .  A
C593       C1998   1.403       .  A
C593        F600   1.358       .  S
C594        C595   1.400   1_454  A
C594       C1997   1.403   1_455  A
C595        C596   1.382       .  A
C595        F602   1.357       .  S
C596        C597   1.400   1_556  A
C596        F601   1.358       .  S
C597       C1910   1.461       .  S
C597       C2002   1.401       .  A
C598       C2001   1.401       .  A
C598        F599   1.357       .  S
C603        C604   1.402   1_554  A
C603        C608   1.376       .  A
C603        F610   1.358       .  S
C604        C605   1.400       .  A
C605        C606   1.391       .  A
C605        F612   1.358       .  S
C606        C607   1.403       .  A
C606        F611   1.358       .  S
C607        C608   1.396   1_556  A
C608        F609   1.357       .  S
C613        C614   1.404       .  A
C613        C618   1.391       .  A
C613        F620   1.358       .  S
C614        C615   1.393   1_554  A
C615        C616   1.376       .  A
C615        F622   1.358       .  S
C616        C617   1.404   1_556  A
C616        F621   1.355       .  S
C617        C618   1.400       .  A
C618        F619   1.358       .  S
C623        C624   1.407   1_554  A
C623        C628   1.379       .  A
C623        F630   1.359       .  S
C624       C1327   1.402       .  A
C625        C626   1.388       .  A
C625       C1326   1.402       .  A
C625        F632   1.357       .  S
C626       C1329   1.401       .  A
C626        F631   1.358       .  S
C627        C628   1.396   1_556  A
C627       C1328   1.401       .  A
C628        F629   1.358       .  S
C633        C638   1.382       .  A
C633       C1336   1.408   1_556  A
C633        F640   1.358       .  S
C634        C635   1.399       .  A
C634       C1335   1.408   1_554  A
C635        C636   1.386       .  A
C635        F642   1.358       .  S
C636        C637   1.401       .  A
C636        F641   1.357       .  S
C637       C1209   1.458       .  S
C637       C1340   1.396   1_554  A
C638       C1339   1.396   1_556  A
C638        F639   1.359       .  S
C643        C644   1.401       .  A
C643        C648   1.386       .  A
C643        F650   1.356       .  S
C644        C645   1.399       .  A
C645        C646   1.398       .  A
C645        F652   1.358       .  S
C646        C647   1.408       .  A
C646        F651   1.353       .  S
C647        C648   1.406       .  A
C648        F649   1.354       .  S
C653        C654   1.404       .  A
C653        C658   1.399       .  A
C653        F660   1.352       .  S
C654        C655   1.399       .  A
C655        C656   1.389       .  A
C655        F662   1.354       .  S
C656        C657   1.407       .  A
C656        F661   1.358       .  S
C657        C658   1.411       .  A
C658        F659   1.354       .  S
C663        C664   1.366       .  A
C663        C668   1.482       .  A
C663        F670   1.360       .  S
C664        C665   1.376       .  A
C665        C666   1.378       .  A
C665        F672   1.357       .  S
C666        C667   1.420       .  A
C666        F671   1.351       .  S
C667        C668   1.532       .  A
C668        F669   2.351       .  S
C673        C674   1.403       .  A
C673        C678   1.378       .  A
C673        F680   1.350       .  S
C674        C675   1.411       .  A
C675        C676   1.388       .  A
C675        F682   1.359       .  S
C676        C677   1.398       .  A
C676        F681   1.358       .  S
C677        C678   1.396       .  A
C678        F679   1.359       .  S
C683        C684   1.865       .  A
C683        C688   1.835       .  A
C683        F690   1.352       .  S
C684        C685   1.860       .  A
C685        C686   1.846       .  A
C685        F692   1.355       .  S
C686        C687   1.872       .  A
C686        F691   1.346       .  S
C687        C688   1.848       .  A
C688        F689   1.344       .  S
C693        C694   1.403       .  A
C693        C698   1.390       .  A
C693        F700   1.354       .  S
C694        C695   1.414       .  A
C695        C696   1.392       .  A
C695        F702   1.355       .  S
C696        C697   1.396       .  A
C696        F701   1.358       .  S
C697        C698   1.405       .  A
C698        F699   1.358       .  S
O703       Mg705   2.156       .  S
O703       Mg711   2.188       .  S
O703        C738   1.237       .  S
C704        O741   1.268       .  A
C704        H743   1.081       .  S
C704        O717   1.266       .  A
Mg705       O734   2.178       .  S
Mg705      O2153   2.209       .  S
Mg705       O745   2.191       .  S
Mg705       O716   2.276       .  S
O706       Mg748   2.139       .  S
O706       Mg731   2.159       .  S
O706        C727   1.251       .  S
O707        C738   1.271       .  A
O707       Mg731   2.306       .  S
C708        O710   1.294       .  A
C708        O722   1.283       .  A
C708       C1192   1.542       .  S
O709        C737   1.281       .  A
O709       Mg711   2.328       .  S
O710       Mg742   2.461       .  S
Mg711      O2129   2.217       .  S
Mg711      O2117   2.297   1_455  S
Mg711       O717   2.131       .  S
C712        O750   1.250       .  A
C712        O718   1.250       .  A
C712       C1389   1.430       .  S
O713        C720   1.275       .  A
O713      Mg2115   2.287       .  S
H714        C727   1.081       .  S
C715        O729   1.237       .  S
C715        O730   1.269       .  A
C715        H740   1.081       .  S
O716        C739   1.265       .  A
O717       Mg731   2.244       .  S
O718       Mg748   2.200       .  S
C719        O732   1.260       .  A
C719        O724   1.296       .  A
C719        C752   1.497       .  S
C720       O2151   1.290       .  A
C720        C760   1.523       .  S
Mg721       O729   2.176       .  S
Mg721       O722   2.330       .  S
Mg721       O723   2.350       .  S
Mg721       O750   2.215       .  S
Mg721       O728   2.101       .  S
O723        C727   1.285       .  A
O724       Mg731   2.462       .  S
O725        C744   1.253       .  A
O725      Mg2115   2.221       .  S
O726        C746   1.293       .  A
O726       Mg742   2.407       .  S
O728       Mg742   2.223       .  S
O728        C739   1.264       .  A
O729       Mg748   2.154       .  S
O730       Mg742   2.293       .  S
Mg731       O747   2.422   1_455  S
O732       Mg748   2.187       .  S
H733        C738   1.081   1_655  S
O734       Mg742   2.188       .  S
O734        C737   1.246       .  S
H735        C737   1.081       .  S
H736        C739   1.081       .  S
O741       Mg748   2.283       .  S
C744        O749   1.265       .  A
C744       C1396   1.475       .  S
O745        C746   1.267       .  A
C746       C1184   1.477       .  S
O747       C2124   1.291       .  A
O749      Mg2109   2.208       .  S
C751        C752   1.410       .  A
C751        C756   1.398       .  A
C752        C753   1.436       .  A
C753        H758   1.084       .  S
C753        C754   1.436       .  A
C754        C936   1.522       .  S
C754        C755   1.428       .  A
C755        C887   1.480       .  S
C755        C756   1.406       .  A
C756        H757   1.087       .  S
C759        C820   1.518       .  S
C759        C760   1.445       .  A
C759        C764   1.442       .  A
C760        C761   1.424       .  A
C761        H766   1.086       .  S
C761        C762   1.411       .  A
C762        C972   1.474       .  S
C762        C763   1.399       .  A
C763        C888   1.506       .  S
C763        C764   1.413       .  A
C764        H765   1.084       .  S
O767       Mg769   2.180   1_565  S
O767       Mg775   2.150       .  S
O767        C802   1.239       .  S
C768        O781   1.236       .  S
C768        O805   1.270       .  A
C768        H807   1.081       .  S
Mg769       O798   2.143   1_545  S
Mg769       O780   2.270   1_545  S
O770       Mg812   2.109       .  S
O770       Mg795   2.129       .  S
O770        C791   1.250       .  S
O771        C802   1.275       .  A
O771       Mg795   2.326       .  S
C772       O2178   1.286       .  A
C772        O786   1.275       .  A
C772        C864   1.514       .  S
O773        C801   1.273       .  A
O773       Mg775   2.310       .  S
O774       C2176   1.286   1_455  A
O774       Mg806   2.388       .  S
Mg775       O781   2.093       .  S
Mg775       O777   2.192       .  S
C776        O814   1.256       .  A
C776        O782   1.264       .  A
C776       C1376   1.453       .  S
O777        C784   1.258       .  A
H778        C791   1.081       .  S
C779        O794   1.269       .  A
C779        H804   1.078   1_455  S
C779        O793   1.263       .  A
O780        C803   1.264       .  A
O781       Mg795   2.180       .  S
O782      Mg2216   2.251       .  S
C783        O796   1.268       .  A
C783        O788   1.290       .  A
C783       C1183   1.494       .  S
C784        O811   1.279       .  A
C784       C1199   1.492       .  S
Mg785       O792   2.061       .  S
Mg785      O2190   2.287       .  S
Mg785       O787   2.336       .  S
Mg785      O2218   2.223       .  S
Mg785       O793   2.229       .  S
O786      Mg2189   2.287       .  S
O787        C791   1.285       .  A
O788       Mg795   2.433       .  S
O789        C808   1.253       .  A
O790        C810   1.289       .  A
O790       Mg806   2.386   1_545  S
O792       Mg806   2.171       .  S
O792        C803   1.233       .  S
O793       Mg812   2.185       .  S
O794       Mg806   2.295       .  S
Mg795       O811   2.368       .  S
O796       Mg812   2.222       .  S
H797        C802   1.081       .  S
O798       Mg806   2.157       .  S
O798        C801   1.238       .  S
H799        C801   1.081       .  S
H800        C803   1.081       .  S
O805       Mg812   2.300       .  S
C808        O813   1.273       .  A
C808       C1366   1.455       .  S
Mg812      O2186   2.251       .  S
O814      Mg2189   2.223       .  S
O815       Mg817   2.221       .  S
O815       Mg823   2.172       .  S
O815        C850   1.240       .  S
C816        O829   1.238       .  S
C816        O853   1.271       .  A
C816        H855   1.081       .  S
Mg817       O846   2.097       .  S
Mg817       O861   2.215       .  S
Mg817       O857   2.277       .  S
Mg817       O828   2.305       .  S
O818       Mg860   2.113       .  S
O818       Mg843   2.145       .  S
O818        C839   1.244       .  S
O819        C850   1.275       .  A
O819       Mg843   2.320       .  S
C820        O834   1.274       .  A
O821        C849   1.286       .  A
O821       Mg823   2.370       .  S
O822       Mg854   2.410   1_545  S
Mg823       O829   2.122       .  S
Mg823       O837   2.309       .  S
Mg823       O825   2.322       .  S
C824        O862   1.262       .  A
C824        O830   1.260       .  A
C824       C1346   1.456       .  S
O825        C832   1.280       .  A
H826        C839   1.081       .  S
C827        O841   1.238   1_545  S
C827        O842   1.273       .  A
C827        H852   1.081       .  S
O828        C851   1.272       .  A
O829       Mg843   2.173       .  S
C831        O844   1.271       .  A
C831        O836   1.301       .  A
C831       C1200   1.510       .  S
C832        O859   1.291       .  A
C832       C1191   1.528       .  S
Mg833       O840   2.132       .  S
Mg833       O841   2.155       .  S
Mg833       O835   2.331       .  S
O835        C839   1.280       .  A
O836       Mg843   2.486       .  S
O837        C856   1.259       .  A
O838        C858   1.299       .  A
O838       Mg854   2.485       .  S
O840       Mg854   2.186       .  S
O840        C851   1.238       .  S
O841       Mg860   2.199       .  S
O842       Mg854   2.317   1_545  S
Mg843       O859   2.421       .  S
O844       Mg860   2.259       .  S
H845        C850   1.081       .  S
O846       Mg854   2.151       .  S
O846        C849   1.248       .  S
H847        C849   1.081       .  S
H848        C851   1.081       .  S
O853       Mg860   2.291       .  S
C856        O861   1.248       .  A
C856       C1356   1.461       .  S
O857        C858   1.268       .  A
C858        C863   1.511       .  S
C863        C864   1.432       .  A
C863        C868   1.419       .  A
C864        C865   1.424       .  A
C865        H870   1.086       .  S
C865        C866   1.416       .  A
C866       C1010   1.515       .  S
C866        C867   1.436       .  A
C867        C935   1.502       .  S
C867        C868   1.427       .  A
C868        H869   1.086       .  S
O871       Mg873   2.119   1_544  S
O871        C906   1.234       .  S
C872        O909   1.268       .  A
C872        H911   1.081       .  S
C872        O885   1.267       .  A
Mg873       O917   2.216   1_565  S
Mg873       O913   2.152       .  S
Mg873       O884   2.278       .  S
O874       Mg916   2.135       .  S
O874       Mg899   2.152       .  S
O875        C906   1.266       .  A
C876        O878   1.286       .  A
C876        O890   1.276       .  A
C876       C1071   1.508       .  S
O877        C905   1.285       .  A
O877       Mg879   2.346   1_556  S
O878       Mg910   2.349       .  S
Mg879       O893   2.209   1_554  S
Mg879       O881   2.315       .  S
Mg879       O885   2.142       .  S
C880        O918   1.257       .  A
C880       C1336   1.445       .  S
O881        C888   1.277       .  A
H882        C895   1.081       .  S
C883        O897   1.234       .  S
C883        O898   1.266       .  A
C883        H908   1.081       .  S
O884        C907   1.270       .  A
O885       Mg899   2.241       .  S
O886       Mg916   2.227       .  S
C887        O900   1.269       .  A
C887        O892   1.289       .  A
C888        O915   1.289       .  A
Mg889       O896   2.082       .  S
Mg889       O890   2.328       .  S
Mg889       O891   2.341   1_556  S
Mg889       O918   2.211   1_556  S
O891        C895   1.284       .  A
O892       Mg899   2.412       .  S
O893        C912   1.256       .  A
O894        C914   1.288       .  A
O894       Mg910   2.418       .  S
O896       Mg910   2.163       .  S
O896        C907   1.239       .  S
O897       Mg916   2.143   1_556  S
Mg899       O915   2.360       .  S
O900       Mg916   2.206       .  S
H901        C906   1.081   1_565  S
O902        C905   1.249       .  S
H903        C905   1.081       .  S
H904        C907   1.081       .  S
O909       Mg916   2.280       .  S
C912       C1326   1.447       .  S
O913        C914   1.261       .  A
C914       C1175   1.478       .  S
O919       Mg921   2.143   1_554  S
O919       Mg927   2.158       .  S
O919        C954   1.235       .  S
C920        O933   1.240       .  S
C920        O957   1.273       .  A
C920        H959   1.081       .  S
Mg921       O950   2.119       .  S
Mg921       O965   2.245       .  S
Mg921       O961   2.201       .  S
Mg921       O932   2.284       .  S
O922       Mg964   2.119       .  S
O922       Mg947   2.166       .  S
O922        C943   1.251       .  S
O923        C954   1.268       .  A
O923       Mg947   2.299       .  S
C924        O926   1.288       .  A
C924        O938   1.280       .  A
C924       C1176   1.513       .  S
O925        C953   1.285       .  A
O925       Mg927   2.344   1_556  S
O926       Mg958   2.354       .  S
Mg927       O933   2.100       .  S
Mg927       O941   2.226   1_554  S
Mg927       O929   2.353       .  S
C928        O966   1.260       .  A
C928        O934   1.259       .  A
C928       C1319   1.441       .  S
O929        C936   1.278       .  A
H930        C943   1.081       .  S
C931        O945   1.235       .  S
C931        O946   1.267       .  A
C931        H956   1.081       .  S
O932        C955   1.272       .  A
O933       Mg947   2.157       .  S
O934       Mg964   2.253       .  S
C935        O948   1.270       .  A
C935        O940   1.296       .  A
C936        O963   1.293       .  A
Mg937       O944   2.097       .  S
Mg937       O945   2.160       .  S
Mg937       O938   2.358       .  S
Mg937       O939   2.350   1_556  S
Mg937       O966   2.236   1_556  S
O939        C943   1.287       .  A
O940       Mg947   2.473       .  S
O941        C960   1.259       .  A
O942        C962   1.291       .  A
O942       Mg958   2.441       .  S
O944       Mg958   2.164       .  S
O944        C955   1.240       .  S
O945       Mg964   2.147   1_556  S
O946       Mg958   2.294       .  S
Mg947       O963   2.390       .  S
O948       Mg964   2.222       .  S
H949        C954   1.081       .  S
O950       Mg958   2.148       .  S
O950        C953   1.249       .  S
H951        C953   1.081       .  S
H952        C955   1.081       .  S
O957       Mg964   2.290       .  S
C960        O965   1.256       .  A
C960       C1306   1.439       .  S
O961        C962   1.267       .  A
C962       C1063   1.487       .  S
O967       Mg969   2.294   1_556  S
O967      Mg2379   2.240       .  S
O967       C1002   1.262       .  A
C968        O981   1.235       .  S
C968       O1005   1.266       .  A
C968       H1007   1.081       .  S
Mg969       O998   2.122       .  S
Mg969      O1013   2.196       .  S
Mg969      O1009   2.246       .  S
Mg969       O980   2.276       .  S
O970      Mg1012   2.117       .  S
O970       Mg995   2.094       .  S
O970       C2395   1.251   1_455  S
O971       C1002   1.270       .  A
O971      Mg2399   2.335       .  S
C972        O974   1.286       .  A
C972        O986   1.271       .  A
O973       C1001   1.285       .  A
O973       Mg975   2.352   1_554  S
O974      Mg1006   2.311       .  S
Mg975       O981   2.120       .  S
Mg975       O989   2.263   1_556  S
Mg975       O977   2.277       .  S
Mg975      O2371   2.240   1_455  S
C976       O1014   1.257       .  A
C976       O2386   1.236       .  A
C976       C1286   1.443       .  S
O977        C984   1.272       .  A
H978        C991   1.081       .  S
C979        O994   1.268   1_455  A
C979       H1004   1.080       .  S
C979        O993   1.261   1_455  A
O980       C1003   1.267       .  A
O981       Mg995   2.195       .  S
O982       C2380   1.236       .  A
O982      Mg1012   2.199   1_655  S
C983        O996   1.266       .  A
C983        O988   1.301       .  A
C983       C1064   1.514       .  S
C984       O1011   1.288       .  A
C984       C1072   1.479       .  S
Mg985       O992   2.126       .  S
Mg985       O986   2.266       .  S
Mg985       O987   2.352   1_554  S
Mg985      O1014   2.274   1_554  S
Mg985      O2397   2.231       .  S
O987        C991   1.285       .  A
O988       Mg995   2.509       .  S
O989       C1008   1.257       .  A
O990       C1010   1.298       .  A
O990      Mg1006   2.487       .  S
C991       O2374   1.251       .  S
O992      Mg1006   2.203       .  S
O992       C1003   1.235       .  S
O993      Mg2389   2.231       .  S
O993      Mg1012   2.279   1_654  S
O994      Mg2410   2.326       .  S
Mg995      O2375   2.335       .  S
Mg995      O1011   2.326       .  S
O996      Mg1012   2.224       .  S
H997       C1002   1.080       .  S
O998      Mg1006   2.096       .  S
O998       C2405   1.251       .  S
H999       C1001   1.081       .  S
H1000      C1003   1.081       .  S
C1001      O2402   1.251   1_455  S
O1005     Mg1012   2.274       .  S
Mg1006     O2398   2.326       .  S
C1008      O2417   1.237       .  A
C1008      C1296   1.442       .  S
O1009      C1010   1.269       .  A
O1013      C2412   1.237       .  A
O1015     Mg1017   2.161       .  S
O1015     Mg1023   2.175       .  S
O1015      C1050   1.239       .  S
C1016      O1029   1.237       .  S
C1016      O1053   1.270       .  A
C1016      H1055   1.081       .  S
Mg1017     O1046   2.108       .  S
Mg1017     O1057   2.243       .  S
Mg1017     O1028   2.293       .  S
O1018     Mg1060   2.109       .  S
O1018     Mg1043   2.133       .  S
O1018      C1039   1.244       .  S
O1019      C1050   1.274       .  A
O1019     Mg1043   2.314       .  S
C1020      O1022   1.282       .  A
C1020      O1034   1.266       .  A
C1020      C1194   1.509       .  S
O1021      C1049   1.279       .  A
O1021     Mg1023   2.325       .  S
O1022     Mg1054   2.376       .  S
Mg1023     O1029   2.089       .  S
C1024      O1062   1.258       .  A
C1024      O1030   1.263       .  A
C1024      C1266   1.469       .  S
O1025      C1032   1.272   1_545  A
H1026      C1039   1.081       .  S
C1027      O1041   1.239       .  S
C1027      O1042   1.274       .  A
C1027      H1052   1.081       .  S
O1028      C1051   1.270       .  A
O1029     Mg1043   2.165       .  S
O1030     Mg1060   2.242       .  S
C1031      O1044   1.264       .  A
C1031      O1036   1.287       .  A
C1031      C1067   1.492       .  S
C1032      C1075   1.498       .  S
Mg1033     O1040   2.089       .  S
Mg1033     O1041   2.166       .  S
Mg1033     O1034   2.231       .  S
Mg1033     O1035   2.324       .  S
Mg1033     O1062   2.245       .  S
O1035      C1039   1.279       .  A
O1036     Mg1043   2.417       .  S
O1037      C1056   1.259       .  A
O1038      C1058   1.291       .  A
O1038     Mg1054   2.439       .  S
O1040     Mg1054   2.172       .  S
O1040      C1051   1.238       .  S
O1041     Mg1060   2.149       .  S
O1042     Mg1054   2.313       .  S
Mg1043     O1059   2.346       .  S
O1044     Mg1060   2.229       .  S
H1045      C1050   1.081       .  S
O1046     Mg1054   2.135       .  S
O1046      C1049   1.245       .  S
H1047      C1049   1.081       .  S
H1048      C1051   1.081       .  S
O1053     Mg1060   2.293       .  S
C1056      O1061   1.262       .  A
C1056      C1276   1.471   1_545  S
O1057      C1058   1.265       .  A
C1058      C1203   1.500       .  S
C1063      C1064   1.440       .  A
C1063      C1068   1.424       .  A
C1064      C1065   1.418       .  A
C1065      H1070   1.086       .  S
C1065      C1066   1.414       .  A
C1066      C2526   1.466       .  S
C1066      C1067   1.402       .  A
C1067      C1068   1.404       .  A
C1068      H1069   1.086       .  S
C1071      C1072   1.408       .  A
C1071      C1076   1.402       .  A
C1072      C1073   1.431       .  A
C1073      H1078   1.084       .  S
C1073      C1074   1.429       .  A
C1074      C2548   1.530       .  S
C1074      C1075   1.436       .  A
C1075      C1076   1.427       .  A
C1076      H1077   1.085       .  S
O1079     Mg1081   2.134       .  S
O1079     Mg1087   2.188       .  S
O1079      C1114   1.237       .  S
C1080      O1093   1.236       .  S
C1080      O1117   1.267       .  A
C1080      H1119   1.081       .  S
Mg1081     O1110   2.156       .  S
Mg1081     O2529   2.206       .  S
Mg1081     O2525   2.179       .  S
Mg1081     O1092   2.276       .  S
O1082     Mg1124   2.154       .  S
O1082     Mg1107   2.176       .  S
O1082      C1103   1.244       .  S
O1083      C1114   1.269       .  A
O1083     Mg1107   2.292       .  S
C1084      O1098   1.272       .  A
C1084      C1179   1.527       .  S
O1085      C1113   1.280       .  A
O1085     Mg1087   2.329       .  S
O1086     Mg1118   2.443       .  S
Mg1087     O1093   2.057       .  S
Mg1087     O2505   2.233       .  S
Mg1087     O1089   2.289       .  S
C1088      O1126   1.253   1_565  A
C1088      O1094   1.267   1_565  A
C1088      C1249   1.471       .  S
O1089      C1096   1.276       .  A
H1090      C1103   1.081       .  S
C1091      O1105   1.237       .  S
C1091      O1106   1.268       .  A
C1091      H1116   1.081       .  S
O1092      C1115   1.266       .  A
O1093     Mg1107   2.160       .  S
C1095      O1108   1.266       .  A
C1095      O1100   1.292       .  A
C1095      C1202   1.473       .  S
C1096      O1123   1.290       .  A
C1096      C1186   1.532       .  S
Mg1097     O1104   2.050       .  S
Mg1097     O1105   2.178       .  S
Mg1097     O1099   2.320       .  S
O1099      C1103   1.278       .  A
O1100     Mg1107   2.410       .  S
O1101      C1120   1.251       .  A
O1101     Mg2491   2.233   1_455  S
O1102      C1122   1.288       .  A
O1102     Mg1118   2.384       .  S
O1104     Mg1118   2.167       .  S
O1104      C1115   1.235       .  S
O1105     Mg1124   2.129       .  S
O1106     Mg1118   2.288       .  S
Mg1107     O1123   2.444       .  S
O1108     Mg1124   2.181       .  S
H1109      C1114   1.081       .  S
O1110     Mg1118   2.183       .  S
O1110      C1113   1.245       .  S
H1111      C1113   1.081       .  S
H1112      C1115   1.081       .  S
O1117     Mg1124   2.275       .  S
C1120      O1125   1.266       .  A
C1120      C1256   1.477       .  S
O1121      C2526   1.266       .  A
O1121     Mg2485   2.179   1_455  S
C1122      O2525   1.266       .  A
C1122      C2470   1.466       .  S
O1125     Mg2485   2.206   1_455  S
O1127     Mg1129   2.163       .  S
O1127     Mg1135   2.166       .  S
O1127      C1162   1.235       .  S
C1128      O1141   1.239       .  S
C1128      O1165   1.271       .  A
C1128      H1167   1.081       .  S
Mg1129     O1158   2.124       .  S
Mg1129     O2577   2.244       .  S
Mg1129     O1169   2.239       .  S
Mg1129     O1140   2.287       .  S
O1130     Mg1172   2.129       .  S
O1130     Mg1155   2.177       .  S
O1130      C1151   1.250       .  S
O1131      C1162   1.269       .  A
O1131     Mg1155   2.299       .  S
C1132      O1134   1.293       .  A
C1132      O1146   1.278       .  A
C1132      C1195   1.526       .  S
O1133      C1161   1.286       .  A
O1133     Mg1135   2.351       .  S
O1134     Mg1166   2.399       .  S
Mg1135     O1141   2.108       .  S
Mg1135     O2553   2.225       .  S
Mg1135     O2541   2.352       .  S
C1136      O1174   1.258       .  A
C1136      O1142   1.260       .  A
C1136      C1236   1.447       .  S
O1137      C2548   1.278       .  A
O1137     Mg2539   2.352   1_455  S
H1138      C1151   1.081       .  S
C1139      O1153   1.234       .  S
C1139      O1154   1.269       .  A
C1139      H1164   1.081       .  S
O1140      C1163   1.272       .  A
O1141     Mg1155   2.165       .  S
O1142     Mg1172   2.245       .  S
C1143      O1156   1.269       .  A
C1143      O1148   1.299       .  A
C1143      C1178   1.504       .  S
C1144      O2541   1.278       .  A
C1144      O1171   1.296       .  A
C1144      C2478   1.530       .  S
Mg1145     O1152   2.113       .  S
Mg1145     O1153   2.162       .  S
Mg1145     O1146   2.352       .  S
Mg1145     O1147   2.354       .  S
Mg1145     O1174   2.224       .  S
O1147      C1151   1.286       .  A
O1148     Mg1155   2.489       .  S
O1149      C1168   1.258       .  A
O1149     Mg2539   2.224   1_455  S
O1150      C1170   1.297       .  A
O1150     Mg1166   2.486       .  S
O1152     Mg1166   2.174       .  S
O1152      C1163   1.240       .  S
O1153     Mg1172   2.162       .  S
O1154     Mg1166   2.304       .  S
Mg1155     O1171   2.421       .  S
O1156     Mg1172   2.219       .  S
H1157      C1162   1.081       .  S
O1158     Mg1166   2.165       .  S
O1158      C1161   1.251       .  S
H1159      C1161   1.081       .  S
H1160      C1163   1.081       .  S
O1165     Mg1172   2.286       .  S
C1168      O1173   1.258       .  A
C1168      C1226   1.437       .  S
O1169      C1170   1.271       .  A
C1170      C1187   1.509       .  S
O1173     Mg2533   2.244   1_455  S
C1175      C1176   1.409       .  A
C1175      C1180   1.405       .  A
C1176      C1177   1.426       .  A
C1177      H1182   1.085       .  S
C1177      C1178   1.442       .  A
C1178      C1179   1.440       .  A
C1179      C1180   1.415       .  A
C1180      H1181   1.087       .  S
C1183      C1184   1.397       .  A
C1183      C1188   1.417       .  A
C1184      C1185   1.407       .  A
C1185      H1190   1.086       .  S
C1185      C2590   1.425   1_455  A
C1186      C2589   1.425       .  A
C1186      C1187   1.450       .  A
C1187      C2592   1.435       .  A
C1188      H1189   1.085       .  S
C1188      C2591   1.435   1_455  A
C1191      C1192   1.448       .  A
C1191      C1196   1.449       .  A
C1192      C1193   1.418       .  A
C1193      H1198   1.084       .  S
C1193      C1194   1.423       .  A
C1194      C1195   1.419       .  A
C1195      C1196   1.428       .  A
C1196      H1197   1.084       .  S
C1199      C1200   1.428       .  A
C1201      H1206   1.085       .  S
C1201      C1202   1.423       .  A
C1202      C1203   1.407       .  A
C1203      C1204   1.407       .  A
C1204      H1205   1.085       .  S
C1207      C1316   1.455       .  S
C1207      C1208   1.379       .  A
C1208      C2703   1.461       .  S
C1208      C1911   1.403       .  A
C1209      C1910   1.403   1_455  A
C1209      C1210   1.395   1_554  A
C1210      C1309   1.456       .  S
C1210      C2615   1.385       .  A
C1211      C1289   1.464       .  S
C1211      C2614   1.385       .  A
C1211      C1212   1.406       .  A
C1212      C1329   1.457       .  S
C1213      C1369   1.523       .  S
C1213      C1214   1.409       .  A
C1213      C1218   1.382       .  A
C1214      C1349   1.485       .  S
C1214      C1215   1.395       .  A
C1215      C1399   1.477       .  S
C1215      C1216   1.427       .  A
C1216      C1379   1.448       .  S
C1216      C1217   1.417       .  A
C1217      C1359   1.541       .  S
C1217      C1218   1.406       .  A
C1218      C1386   1.378       .  S
C1219      C1259   1.474       .  S
C1219      C1220   1.387       .  A
C1219      C1224   1.406       .  A
C1220      C1229   1.451       .  S
C1220      C1221   1.396       .  A
C1221      C1279   1.467       .  S
C1221      C1222   1.406       .  A
C1222      C1246   1.474       .  S
C1222      C1223   1.392       .  A
C1223      C1239   1.460       .  S
C1223      C1224   1.401       .  A
C1224      C1269   1.465       .  S
C1225      C1226   1.397       .  A
C1225      C1230   1.387       .  A
C1225      F1232   1.358       .  S
C1226      C1227   1.405       .  A
C1227      C1228   1.381       .  A
C1227      F1234   1.358       .  S
C1228      C1229   1.395       .  A
C1228      F1233   1.358       .  S
C1229      C1230   1.402       .  A
C1230      F1231   1.357       .  S
C1235      C1236   1.398       .  A
C1235      C1240   1.390       .  A
C1235      F1242   1.358       .  S
C1236      C1237   1.407       .  A
C1237      C1238   1.383       .  A
C1237      F1244   1.358       .  S
C1238      C1239   1.396       .  A
C1238      F1243   1.358       .  S
C1239      C1240   1.404       .  A
C1240      F1241   1.357       .  S
C1245      C1246   1.400       .  A
C1245      C1250   1.391       .  A
C1245      F1252   1.357       .  S
C1246      C1247   1.401       .  A
C1247      C1248   1.393       .  A
C1247      F1254   1.358       .  S
C1248      C1249   1.406       .  A
C1248      F1253   1.353       .  S
C1249      C1250   1.410       .  A
C1250      F1251   1.358       .  S
C1255      C1256   1.408       .  A
C1255      C1260   1.392       .  A
C1255      F1262   1.351       .  S
C1256      C1257   1.413       .  A
C1257      C1258   1.391       .  A
C1257      F1264   1.358       .  S
C1258      C1259   1.397       .  A
C1258      F1263   1.357       .  S
C1259      C1260   1.400       .  A
C1260      F1261   1.358       .  S
C1265      C1266   1.405       .  A
C1265      C1270   1.383       .  A
C1265      F1272   1.346       .  S
C1266      C1267   1.410       .  A
C1267      C1268   1.393       .  A
C1267      F1274   1.358       .  S
C1268      C1269   1.401       .  A
C1268      F1273   1.358       .  S
C1269      C1270   1.393       .  A
C1270      F1271   1.358       .  S
C1275      C1276   1.409       .  A
C1275      C1280   1.391       .  A
C1275      F1282   1.356       .  S
C1276      C1277   1.406       .  A
C1277      C1278   1.385       .  A
C1277      F1284   1.346       .  S
C1278      C1279   1.394       .  A
C1278      F1283   1.358       .  S
C1279      C1280   1.400       .  A
C1280      F1281   1.357       .  S
C1285      C2690   1.403       .  A
C1285      C1290   1.392   1_655  A
C1285      F1292   1.358       .  S
C1286      C2689   1.403       .  A
C1286      C1287   1.399       .  A
C1287      C1288   1.382       .  A
C1287      F1294   1.357   1_556  S
C1288      C1289   1.401       .  A
C1288      F1293   1.357   1_556  S
C1289      C2694   1.401       .  A
C1290      C2693   1.401       .  A
C1290      F1291   1.357       .  S
C1295      C2700   1.403       .  A
C1295      C1300   1.391       .  A
C1295      F1302   1.358       .  S
C1296      C2699   1.403   1_455  A
C1296      C1297   1.400   1_454  A
C1297      C1298   1.382       .  A
C1297      F1304   1.357       .  S
C1298      C1299   1.400   1_556  A
C1298      F1303   1.358       .  S
C1299      C2612   1.461       .  S
C1299      C2704   1.401       .  A
C1300      C2703   1.401       .  A
C1300      F1301   1.357       .  S
C1305      C1306   1.403   1_554  A
C1305      C1310   1.376       .  A
C1305      F1312   1.358       .  S
C1306      C1307   1.400       .  A
C1307      C1308   1.391       .  A
C1307      F1314   1.358       .  S
C1308      C1309   1.403       .  A
C1308      F1313   1.358       .  S
C1309      C1310   1.396   1_556  A
C1310      F1311   1.357       .  S
C1315      C1316   1.404       .  A
C1315      C1320   1.391       .  A
C1315      F1322   1.358       .  S
C1316      C1317   1.393   1_554  A
C1317      C1318   1.376       .  A
C1317      F1324   1.357       .  S
C1318      C1319   1.404   1_556  A
C1318      F1323   1.355       .  S
C1319      C1320   1.400       .  A
C1320      F1321   1.358       .  S
C1325      C1326   1.407   1_554  A
C1325      C1330   1.379       .  A
C1325      F1332   1.359       .  S
C1327      C1328   1.388       .  A
C1327      F1334   1.357       .  S
C1328      F1333   1.358   1_545  S
C1329      C1330   1.396   1_556  A
C1330      F1331   1.358       .  S
C1335      C1340   1.382       .  A
C1335      F1342   1.358       .  S
C1336      C1337   1.399       .  A
C1337      C1338   1.386       .  A
C1337      F1344   1.358       .  S
C1338      C1339   1.401       .  A
C1338      F1343   1.357       .  S
C1340      F1341   1.359       .  S
C1345      C1346   1.401       .  A
C1345      C1350   1.386       .  A
C1345      F1352   1.356       .  S
C1346      C1347   1.399       .  A
C1347      C1348   1.398       .  A
C1347      F1354   1.358       .  S
C1348      C1349   1.408       .  A
C1348      F1353   1.354       .  S
C1349      C1350   1.406       .  A
C1350      F1351   1.354       .  S
C1355      C1356   1.404       .  A
C1355      C1360   1.399       .  A
C1355      F1362   1.352       .  S
C1356      C1357   1.399       .  A
C1357      C1358   1.389       .  A
C1357      F1364   1.354       .  S
C1358      C1359   1.407       .  A
C1358      F1363   1.358       .  S
C1359      C1360   1.411       .  A
C1360      F1361   1.354       .  S
C1365      C1366   1.366       .  A
C1365      C1370   1.482       .  A
C1365      F1372   1.360       .  S
C1366      C1367   1.376       .  A
C1367      C1368   1.378       .  A
C1367      F1374   1.357       .  S
C1368      C1369   1.419       .  A
C1368      F1373   1.351       .  S
C1369      C1370   1.532       .  A
C1370      F1371   2.351       .  S
C1375      C1376   1.403       .  A
C1375      C1380   1.378       .  A
C1375      F1382   1.350       .  S
C1376      C1377   1.411       .  A
C1377      C1378   1.388       .  A
C1377      F1384   1.359       .  S
C1378      C1379   1.398       .  A
C1378      F1383   1.358       .  S
C1379      C1380   1.396       .  A
C1380      F1381   1.359       .  S
C1385      C1386   1.865       .  A
C1385      C1390   1.835       .  A
C1385      F1392   1.352       .  S
C1386      C1387   1.860       .  A
C1387      C1388   1.846       .  A
C1387      F1394   1.355       .  S
C1388      C1389   1.872       .  A
C1388      F1393   1.346       .  S
C1389      C1390   1.848       .  A
C1390      F1391   1.344       .  S
C1395      C1396   1.403       .  A
C1395      C1400   1.390       .  A
C1395      F1402   1.354       .  S
C1396      C1397   1.414       .  A
C1397      C1398   1.393       .  A
C1397      F1404   1.355       .  S
C1398      C1399   1.396       .  A
C1398      F1403   1.358       .  S
C1399      C1400   1.405       .  A
C1400      F1401   1.358       .  S
O1405     Mg1407   2.155       .  S
O1405     Mg1413   2.189       .  S
O1405      C1440   1.237       .  S
C1406      O1443   1.268       .  A
C1406      H1445   1.081       .  S
C1406      O1419   1.266       .  A
Mg1407     O1436   2.178       .  S
Mg1407     O1447   2.191       .  S
Mg1407     O1418   2.276       .  S
O1408     Mg1450   2.140       .  S
O1408     Mg1433   2.159       .  S
O1408      C1429   1.251       .  S
O1409      C1440   1.271       .  A
O1409     Mg1433   2.306       .  S
C1410      O1412   1.294       .  A
C1410      O1424   1.283       .  A
C1410      C1894   1.542       .  S
O1411      C1439   1.281       .  A
O1411     Mg1413   2.328       .  S
O1412     Mg1444   2.461       .  S
Mg1413     O1419   2.131       .  S
C1414      O1452   1.250       .  A
C1414      O1420   1.250       .  A
C1414      C2091   1.430       .  S
O1415      C1422   1.275       .  A
H1416      C1429   1.081       .  S
C1417      O1431   1.237       .  S
C1417      O1432   1.269       .  A
C1417      H1442   1.081       .  S
O1418      C1441   1.265       .  A
O1419     Mg1433   2.244       .  S
O1420     Mg1450   2.200       .  S
C1421      O1434   1.260       .  A
C1421      O1426   1.296       .  A
C1421      C1454   1.497       .  S
C1422      C1462   1.523       .  S
Mg1423     O1431   2.175       .  S
Mg1423     O1424   2.329       .  S
Mg1423     O1425   2.350       .  S
Mg1423     O1452   2.215       .  S
Mg1423     O1430   2.101       .  S
O1425      C1429   1.285       .  A
O1426     Mg1433   2.462       .  S
O1427      C1446   1.253   1_455  A
O1428      C1448   1.293       .  A
O1428     Mg1444   2.406       .  S
O1430     Mg1444   2.224       .  S
O1430      C1441   1.264       .  A
O1431     Mg1450   2.154       .  S
O1432     Mg1444   2.292       .  S
Mg1433     O1449   2.423       .  S
O1434     Mg1450   2.187       .  S
H1435      C1440   1.081       .  S
O1436     Mg1444   2.188       .  S
O1436      C1439   1.246       .  S
H1437      C1439   1.081       .  S
H1438      C1441   1.081       .  S
O1443     Mg1450   2.282       .  S
C1446      O1451   1.265   1_655  A
C1446      C2098   1.475       .  S
O1447      C1448   1.267       .  A
C1448      C1886   1.477       .  S
C1453      C2214   1.480       .  S
C1453      C1454   1.410       .  A
C1453      C1458   1.398       .  A
C1454      C1455   1.436       .  A
C1455      H1460   1.084       .  S
C1455      C1456   1.436       .  A
C1456      C1638   1.522       .  S
C1456      C1457   1.428       .  A
C1457      C1589   1.479       .  S
C1457      C1458   1.406       .  A
C1458      H1459   1.087       .  S
C1461      C1522   1.518       .  S
C1461      C1462   1.445       .  A
C1461      C1466   1.442       .  A
C1462      C1463   1.424       .  A
C1463      H1468   1.086       .  S
C1463      C1464   1.411       .  A
C1464      C1674   1.474       .  S
C1464      C1465   1.399       .  A
C1465      C1590   1.506       .  S
C1465      C1466   1.413       .  A
C1466      H1467   1.084       .  S
O1469     Mg1471   2.180       .  S
O1469     Mg1477   2.150       .  S
O1469      C1504   1.239       .  S
C1470      O1483   1.236       .  S
C1470      O1507   1.270       .  A
C1470      H1509   1.081       .  S
Mg1471     O1500   2.143       .  S
Mg1471     O2217   2.302       .  S
Mg1471     O2213   2.248       .  S
Mg1471     O1482   2.270       .  S
O1472     Mg1514   2.109       .  S
O1472     Mg1497   2.129       .  S
O1472      C1493   1.250       .  S
O1473      C1504   1.275       .  A
O1473     Mg1497   2.326       .  S
C1474      O1488   1.275   1_655  A
C1474      C1566   1.514       .  S
O1475      C1503   1.273       .  A
O1475     Mg1477   2.310       .  S
O1476     Mg1508   2.389       .  S
Mg1477     O1483   2.093       .  S
Mg1477     O2193   2.180       .  S
Mg1477     O1479   2.192       .  S
C1478      O1516   1.256       .  A
C1478      O1484   1.264       .  A
C1478      C2078   1.453   1_455  S
O1479      C1486   1.258       .  A
H1480      C1493   1.081       .  S
C1481      O1496   1.269       .  A
C1481      H1506   1.078       .  S
C1481      O1495   1.263       .  A
O1482      C1505   1.264       .  A
O1483     Mg1497   2.180       .  S
C1485      O1498   1.268       .  A
C1485      O1490   1.290       .  A
C1485      C1885   1.494       .  S
C1486      O1513   1.279       .  A
C1486      C1901   1.492       .  S
Mg1487     O1494   2.061       .  S
Mg1487     O1489   2.336       .  S
Mg1487     O1495   2.229       .  S
O1489      C1493   1.285       .  A
O1490     Mg1497   2.433       .  S
O1491      C1510   1.253       .  A
O1491     Mg2179   2.181   1_545  S
O1492      C1512   1.289       .  A
O1492     Mg1508   2.386       .  S
O1494     Mg1508   2.171       .  S
O1494      C1505   1.233       .  S
O1495     Mg1514   2.185       .  S
O1496     Mg1508   2.295       .  S
Mg1497     O1513   2.369       .  S
O1498     Mg1514   2.222       .  S
H1499      C1504   1.081       .  S
O1500     Mg1508   2.157       .  S
O1500      C1503   1.238       .  S
H1501      C1503   1.081       .  S
H1502      C1505   1.081       .  S
O1507     Mg1514   2.299       .  S
C1510      O1515   1.273       .  A
C1510      C2068   1.455       .  S
O1511      C2214   1.275       .  A
O1511     Mg2173   2.249       .  S
C1512      O2213   1.275       .  A
C1512      C2155   1.480       .  S
O1515     Mg2173   2.303       .  S
O1517     Mg1519   2.221       .  S
O1517     Mg1525   2.172       .  S
O1517      C1552   1.240       .  S
C1518      O1531   1.238       .  S
C1518      O1555   1.271       .  A
C1518      H1557   1.081       .  S
Mg1519     O1548   2.097       .  S
Mg1519     O1563   2.215       .  S
Mg1519     O1559   2.276       .  S
Mg1519     O1530   2.305       .  S
O1520     Mg1562   2.113       .  S
O1520     Mg1545   2.145       .  S
O1520      C1541   1.244       .  S
O1521      C1552   1.275       .  A
O1521     Mg1545   2.320       .  S
C1522      O2226   1.287       .  A
C1522      O1536   1.274       .  A
O1523      C1551   1.286       .  A
O1523     Mg1525   2.370       .  S
O1524      C2224   1.287       .  A
O1524     Mg1556   2.410       .  S
Mg1525     O1531   2.122       .  S
Mg1525     O1539   2.309       .  S
Mg1525     O1527   2.322       .  S
C1526      O1564   1.262       .  A
C1526      O1532   1.260       .  A
C1526      C2048   1.455   1_565  S
O1527      C1534   1.280       .  A
H1528      C1541   1.081       .  S
C1529      O1543   1.238       .  S
C1529      O1544   1.273       .  A
C1529      H1554   1.081       .  S
O1530      C1553   1.272       .  A
O1531     Mg1545   2.173       .  S
O1532     Mg2264   2.243       .  S
C1533      O1546   1.271       .  A
C1533      O1538   1.301       .  A
C1533      C1902   1.510       .  S
C1534      O1561   1.291       .  A
C1534      C1893   1.527       .  S
Mg1535     O1542   2.132       .  S
Mg1535     O1543   2.155       .  S
Mg1535     O2238   2.275       .  S
Mg1535     O1537   2.331       .  S
Mg1535     O2266   2.267       .  S
O1536     Mg2237   2.275   1_545  S
O1537      C1541   1.280       .  A
O1538     Mg1545   2.485       .  S
O1539      C1558   1.259       .  A
O1540      C1560   1.299       .  A
O1540     Mg1556   2.484       .  S
O1542     Mg1556   2.187       .  S
O1542      C1553   1.238       .  S
O1543     Mg1562   2.198       .  S
O1544     Mg1556   2.317       .  S
Mg1545     O1561   2.421       .  S
O1546     Mg1562   2.259       .  S
H1547      C1552   1.081       .  S
O1548     Mg1556   2.151       .  S
O1548      C1551   1.248       .  S
H1549      C1551   1.081       .  S
H1550      C1553   1.081       .  S
O1555     Mg1562   2.291       .  S
C1558      O1563   1.248       .  A
C1558      C2058   1.461       .  S
O1559      C1560   1.268       .  A
C1560      C1565   1.511       .  S
Mg1562     O2234   2.243       .  S
O1564     Mg2237   2.266       .  S
C1565      C1566   1.432       .  A
C1565      C1570   1.419       .  A
C1566      C1567   1.424       .  A
C1567      H1572   1.086       .  S
C1567      C1568   1.416       .  A
C1568      C1712   1.515       .  S
C1568      C1569   1.436       .  A
C1569      C1637   1.502       .  S
C1569      C1570   1.427       .  A
C1570      H1571   1.086       .  S
O1573     Mg1575   2.119   1_554  S
O1573     Mg2283   2.157       .  S
O1573      C1608   1.234       .  S
C1574      O1611   1.269       .  A
C1574      H1613   1.081       .  S
C1574      O1587   1.268       .  A
Mg1575     O2306   2.122       .  S
Mg1575     O1619   2.216       .  S
Mg1575     O1615   2.152       .  S
Mg1575     O1586   2.278       .  S
O1576     Mg1618   2.135   1_565  S
O1576     Mg1601   2.152   1_565  S
O1576      C2299   1.249       .  S
O1577      C1608   1.266       .  A
O1577     Mg2303   2.288       .  S
C1578      O1580   1.286       .  A
C1578      O1592   1.276       .  A
C1578      C1773   1.509       .  S
O1579      C1607   1.285       .  A
O1579     Mg1581   2.346   1_556  S
O1580     Mg1612   2.349       .  S
Mg1581     O2275   2.158       .  S
Mg1581     O1595   2.208   1_554  S
Mg1581     O1583   2.316       .  S
Mg1581     O1587   2.141       .  S
C1582      O1620   1.257       .  A
C1582      O2290   1.258       .  A
C1582      C2038   1.445       .  S
O1583      C1590   1.277       .  A
H1584      C1597   1.081       .  S
C1585      O1599   1.234       .  S
C1585      O1600   1.266       .  A
C1585      H1610   1.081   1_565  S
O1586      C1609   1.270       .  A
O1587     Mg1601   2.241       .  S
O1588      C2284   1.257       .  A
O1588     Mg1618   2.226   1_565  S
C1589      O1602   1.269       .  A
C1589      O1594   1.289       .  A
C1590      O1617   1.289       .  A
Mg1591     O1598   2.082       .  S
Mg1591     O2301   2.163       .  S
Mg1591     O1592   2.329       .  S
Mg1591     O1593   2.340   1_556  S
Mg1591     O1620   2.211   1_556  S
O1593      C1597   1.284       .  A
O1594     Mg1601   2.411       .  S
O1595      C1614   1.255       .  A
O1596      C1616   1.288       .  A
O1596     Mg1612   2.419       .  S
C1597      O2278   1.249       .  S
O1598     Mg1612   2.164       .  S
O1598      C1609   1.239       .  S
O1599     Mg2293   2.163       .  S
O1599     Mg1618   2.143   1_566  S
O1600     Mg2314   2.295       .  S
Mg1601     O2279   2.288       .  S
Mg1601     O1617   2.360       .  S
O1602     Mg1618   2.206       .  S
H1603      C1608   1.081       .  S
O1604     Mg2277   2.122   1_545  S
O1604     Mg2314   2.152   1_545  S
O1604      C1607   1.249       .  S
H1605      C1607   1.081       .  S
H1606      C1609   1.081       .  S
O1611     Mg1618   2.280       .  S
Mg1612     O2306   2.152       .  S
Mg1612     O2302   2.296       .  S
C1614      O2321   1.253       .  A
C1614      C2028   1.447       .  S
O1615      C1616   1.261       .  A
C1616      C1877   1.478       .  S
O1619      C2316   1.253       .  A
O1621     Mg1623   2.143   1_554  S
O1621     Mg1629   2.158       .  S
O1621      C1656   1.235       .  S
C1622      O1635   1.240       .  S
C1622      O1659   1.273       .  A
C1622      H1661   1.081       .  S
Mg1623     O1652   2.119       .  S
Mg1623     O1667   2.245       .  S
Mg1623     O1663   2.201       .  S
Mg1623     O1634   2.284       .  S
O1624     Mg1666   2.119       .  S
O1624     Mg1649   2.166       .  S
O1624      C1645   1.251       .  S
O1625      C1656   1.268       .  A
O1625     Mg1649   2.299       .  S
C1626      O1628   1.288       .  A
C1626      O1640   1.280       .  A
C1626      C1878   1.513       .  S
O1627      C1655   1.285       .  A
O1627     Mg1629   2.345   1_556  S
O1628     Mg1660   2.354       .  S
Mg1629     O1635   2.100       .  S
Mg1629     O1643   2.226   1_554  S
Mg1629     O1631   2.353       .  S
C1630      O1668   1.260       .  A
C1630      O1636   1.260       .  A
C1630      C2021   1.441       .  S
O1631      C1638   1.278       .  A
H1632      C1645   1.081       .  S
C1633      O1647   1.235       .  S
C1633      O1648   1.267       .  A
C1633      H1658   1.081       .  S
O1634      C1657   1.272       .  A
O1635     Mg1649   2.157       .  S
O1636     Mg1666   2.253       .  S
C1637      O1650   1.270       .  A
C1637      O1642   1.296       .  A
C1638      O1665   1.293       .  A
Mg1639     O1646   2.097       .  S
Mg1639     O1647   2.160       .  S
Mg1639     O1640   2.357       .  S
Mg1639     O1641   2.350   1_556  S
Mg1639     O1668   2.236   1_556  S
O1641      C1645   1.287       .  A
O1642     Mg1649   2.473       .  S
O1643      C1662   1.259       .  A
O1644      C1664   1.291       .  A
O1644     Mg1660   2.441       .  S
O1646     Mg1660   2.164       .  S
O1646      C1657   1.240       .  S
O1647     Mg1666   2.147   1_556  S
O1648     Mg1660   2.295       .  S
Mg1649     O1665   2.390       .  S
O1650     Mg1666   2.222       .  S
H1651      C1656   1.081       .  S
O1652     Mg1660   2.149       .  S
O1652      C1655   1.249       .  S
H1653      C1655   1.081       .  S
H1654      C1657   1.081       .  S
O1659     Mg1666   2.290       .  S
C1662      O1667   1.256       .  A
C1662      C2008   1.439       .  S
O1663      C1664   1.267       .  A
C1664      C1765   1.487       .  S
O1669     Mg1671   2.293   1_556  S
O1669      C1704   1.262       .  A
C1670      O1683   1.235       .  S
C1670      O1707   1.267       .  A
C1670      H1709   1.081       .  S
Mg1671     O1700   2.122       .  S
Mg1671     O1715   2.195   1_655  S
Mg1671     O1711   2.245       .  S
Mg1671     O1682   2.276       .  S
O1672     Mg1714   2.117       .  S
O1672     Mg1697   2.094       .  S
O1673      C1704   1.270   1_455  A
C1674      O1676   1.286       .  A
C1674      O1688   1.271       .  A
O1675      C1703   1.285       .  A
O1675     Mg1677   2.352   1_554  S
O1676     Mg1708   2.311       .  S
Mg1677     O1683   2.120       .  S
Mg1677     O1691   2.263   1_556  S
Mg1677     O1679   2.277       .  S
C1678      O1716   1.257       .  A
C1678      C1988   1.443       .  S
O1679      C1686   1.272       .  A
H1680      C1693   1.081       .  S
C1681      O1696   1.268       .  A
C1681      H1706   1.080       .  S
C1681      O1695   1.261       .  A
O1682      C1705   1.267       .  A
O1683     Mg1697   2.195       .  S
O1684     Mg1714   2.200       .  S
C1685      O1698   1.266       .  A
C1685      O1690   1.301       .  A
C1685      C1766   1.514       .  S
C1686      O1713   1.288       .  A
C1686      C1774   1.479       .  S
Mg1687     O1694   2.126       .  S
Mg1687     O1688   2.266       .  S
Mg1687     O1689   2.352   1_554  S
Mg1687     O1716   2.273   1_554  S
O1689      C1693   1.285       .  A
O1690     Mg1697   2.509       .  S
O1691      C1710   1.257       .  A
O1692      C1712   1.298       .  A
O1692     Mg1708   2.487       .  S
O1694     Mg1708   2.202       .  S
O1694      C1705   1.235       .  S
O1695     Mg1714   2.279   1_554  S
Mg1697     O1713   2.327       .  S
O1698     Mg1714   2.225       .  S
H1699      C1704   1.080       .  S
O1700     Mg1708   2.096       .  S
H1701      C1703   1.081       .  S
H1702      C1705   1.081       .  S
O1707     Mg1714   2.274       .  S
C1710      C1998   1.442       .  S
O1711      C1712   1.269       .  A
O1717     Mg1719   2.161       .  S
O1717     Mg1725   2.175       .  S
O1717      C1752   1.239       .  S
C1718      O1731   1.237       .  S
C1718      O1755   1.270       .  A
C1718      H1757   1.081       .  S
Mg1719     O1748   2.107       .  S
Mg1719     O2465   2.232       .  S
Mg1719     O1759   2.243       .  S
Mg1719     O1730   2.293       .  S
O1720     Mg1762   2.109       .  S
O1720     Mg1745   2.133       .  S
O1720      C1741   1.244       .  S
O1721      C1752   1.274       .  A
O1721     Mg1745   2.314       .  S
C1722      O1724   1.282       .  A
C1722      O1736   1.266       .  A
C1722      C1896   1.509       .  S
O1723      C1751   1.279       .  A
O1723     Mg1725   2.325       .  S
O1724     Mg1756   2.375       .  S
Mg1725     O1731   2.088       .  S
Mg1725     O2441   2.257       .  S
Mg1725     O2429   2.261       .  S
C1726      O1764   1.258       .  A
C1726      O1732   1.263       .  A
C1726      C1968   1.469       .  S
O1727      C1734   1.272       .  A
O1727     Mg2427   2.261       .  S
H1728      C1741   1.081       .  S
C1729      O1743   1.239       .  S
C1729      O1744   1.274       .  A
C1729      H1754   1.081       .  S
O1730      C1753   1.270       .  A
O1731     Mg1745   2.164       .  S
O1732     Mg1762   2.242       .  S
C1733      O1746   1.264       .  A
C1733      O1738   1.287       .  A
C1733      C1769   1.492       .  S
C1734      O2463   1.279       .  A
C1734      C1777   1.498       .  S
Mg1735     O1742   2.088       .  S
Mg1735     O1743   2.166       .  S
Mg1735     O1736   2.231       .  S
Mg1735     O1737   2.323       .  S
Mg1735     O1764   2.245       .  S
O1737      C1741   1.279       .  A
O1738     Mg1745   2.417       .  S
O1739      C1758   1.259       .  A
O1739     Mg2427   2.258       .  S
O1740      C1760   1.291       .  A
O1740     Mg1756   2.439       .  S
O1742     Mg1756   2.172       .  S
O1742      C1753   1.238       .  S
O1743     Mg1762   2.149       .  S
O1744     Mg1756   2.313       .  S
Mg1745     O1761   2.346       .  S
O1746     Mg1762   2.229       .  S
H1747      C1752   1.081   1_565  S
O1748     Mg1756   2.134       .  S
O1748      C1751   1.245       .  S
H1749      C1751   1.081       .  S
H1750      C1753   1.081       .  S
O1755     Mg1762   2.293       .  S
C1758      O1763   1.262       .  A
C1758      C1978   1.471       .  S
O1759      C1760   1.265       .  A
C1760      C1905   1.500       .  S
O1761      C2436   1.279   1_545  A
O1763     Mg2421   2.231       .  S
C1765      C1766   1.440       .  A
C1765      C1770   1.424       .  A
C1766      C1767   1.418       .  A
C1767      H1772   1.086       .  S
C1767      C1768   1.414       .  A
C1768      C1769   1.402       .  A
C1769      C1770   1.404       .  A
C1770      H1771   1.086       .  S
C1773      C1774   1.408       .  A
C1773      C1778   1.402       .  A
C1774      C1775   1.431       .  A
C1775      H1780   1.084       .  S
C1775      C1776   1.429       .  A
C1776      C1777   1.436       .  A
C1777      C1778   1.427       .  A
C1778      H1779   1.085       .  S
O1781     Mg1783   2.134       .  S
O1781     Mg1789   2.188       .  S
O1781      C1816   1.237       .  S
C1782      O1795   1.236       .  S
C1782      O1819   1.267       .  A
C1782      H1821   1.081       .  S
Mg1783     O1812   2.156       .  S
Mg1783     O1794   2.276       .  S
O1784     Mg1826   2.154       .  S
O1784     Mg1809   2.175       .  S
O1784      C1805   1.244       .  S
O1785      C1816   1.269       .  A
O1785     Mg1809   2.292       .  S
C1786      O2490   1.287       .  A
C1786      O1800   1.272       .  A
C1786      C1881   1.527       .  S
O1787      C1815   1.280       .  A
O1787     Mg1789   2.329       .  S
O1788      C2488   1.287       .  A
O1788     Mg1820   2.442   1_565  S
Mg1789     O1795   2.057       .  S
Mg1789     O1791   2.289       .  S
C1790      O1828   1.253       .  A
C1790      O1796   1.267       .  A
C1790      C1951   1.470       .  S
O1791      C1798   1.276       .  A
H1792      C1805   1.081       .  S
C1793      O1807   1.237   1_565  S
C1793      O1808   1.268       .  A
C1793      H1818   1.081       .  S
O1794      C1817   1.266       .  A
O1795     Mg1809   2.160       .  S
O1796     Mg2528   2.222       .  S
C1797      O1810   1.266       .  A
C1797      O1802   1.292       .  A
C1797      C1904   1.473       .  S
C1798      O1825   1.290       .  A
C1798      C1888   1.532       .  S
Mg1799     O1806   2.050       .  S
Mg1799     O1807   2.178       .  S
Mg1799     O2502   2.255   1_545  S
Mg1799     O1801   2.320       .  S
Mg1799     O2530   2.225       .  S
O1800     Mg2501   2.254       .  S
O1801      C1805   1.278       .  A
O1802     Mg1809   2.410       .  S
O1803      C1822   1.251       .  A
O1804      C1824   1.288   1_655  A
O1804     Mg1820   2.384       .  S
O1806     Mg1820   2.167       .  S
O1806      C1817   1.235       .  S
O1807     Mg1826   2.129       .  S
O1808     Mg1820   2.288   1_565  S
Mg1809     O1825   2.444       .  S
O1810     Mg1826   2.181       .  S
H1811      C1816   1.081       .  S
O1812     Mg1820   2.183       .  S
O1812      C1815   1.245       .  S
H1813      C1815   1.081       .  S
H1814      C1817   1.081       .  S
O1819     Mg1826   2.275       .  S
C1822      O1827   1.266       .  A
C1822      C1958   1.477       .  S
Mg1826     O2498   2.221       .  S
O1828     Mg2501   2.225       .  S
O1829     Mg1831   2.164       .  S
O1829     Mg1837   2.166       .  S
O1829      C1864   1.235       .  S
C1830      O1843   1.239       .  S
C1830      O1867   1.271       .  A
C1830      H1869   1.081       .  S
Mg1831     O1860   2.124       .  S
Mg1831     O1871   2.240       .  S
Mg1831     O1842   2.287       .  S
O1832     Mg1874   2.129       .  S
O1832     Mg1857   2.177       .  S
O1832      C1853   1.250       .  S
O1833      C1864   1.269       .  A
O1833     Mg1857   2.299       .  S
C1834      O1836   1.293       .  A
C1834      O1848   1.278       .  A
C1834      C1897   1.526       .  S
O1835      C1863   1.286       .  A
O1835     Mg1837   2.351       .  S
O1836     Mg1868   2.400       .  S
Mg1837     O1843   2.107       .  S
C1838      O1876   1.258       .  A
C1838      O1844   1.260       .  A
C1838      C1938   1.447       .  S
H1840      C1853   1.081       .  S
C1841      O1855   1.234       .  S
C1841      O1856   1.269       .  A
C1841      H1866   1.081       .  S
O1842      C1865   1.272       .  A
O1843     Mg1857   2.165       .  S
O1844     Mg1874   2.244       .  S
C1845      O1858   1.269       .  A
C1845      O1850   1.299       .  A
C1845      C1880   1.505       .  S
C1846      O1873   1.296   1_455  A
Mg1847     O1854   2.113       .  S
Mg1847     O1855   2.162       .  S
Mg1847     O1848   2.352       .  S
Mg1847     O1849   2.354       .  S
Mg1847     O1876   2.224       .  S
O1849      C1853   1.286       .  A
O1850     Mg1857   2.489       .  S
O1851      C1870   1.258       .  A
O1852      C1872   1.297       .  A
O1852     Mg1868   2.487       .  S
O1854     Mg1868   2.174       .  S
O1854      C1865   1.240       .  S
O1855     Mg1874   2.163       .  S
O1856     Mg1868   2.304       .  S
Mg1857     O1873   2.422       .  S
O1858     Mg1874   2.219       .  S
H1859      C1864   1.081       .  S
O1860     Mg1868   2.165       .  S
O1860      C1863   1.251       .  S
H1861      C1863   1.081       .  S
H1862      C1865   1.081       .  S
O1867     Mg1874   2.286       .  S
C1870      O1875   1.257       .  A
C1870      C1928   1.437       .  S
O1871      C1872   1.271       .  A
C1872      C1889   1.509       .  S
C1877      C1878   1.409       .  A
C1877      C1882   1.405       .  A
C1878      C1879   1.426       .  A
C1879      H1884   1.085       .  S
C1879      C1880   1.442       .  A
C1880      C1881   1.440       .  A
C1881      C1882   1.415       .  A
C1882      H1883   1.087       .  S
C1885      C1886   1.397       .  A
C1885      C1890   1.417       .  A
C1886      C1887   1.407       .  A
C1887      H1892   1.086       .  S
C1888      C1889   1.450       .  A
C1890      H1891   1.085       .  S
C1893      C1894   1.448       .  A
C1893      C1898   1.449       .  A
C1894      C1895   1.418       .  A
C1895      H1900   1.084       .  S
C1895      C1896   1.424       .  A
C1896      C1897   1.419       .  A
C1897      C1898   1.428       .  A
C1898      H1899   1.084       .  S
C1901      C1902   1.428       .  A
C1901      C2608   1.428       .  A
C1902      C2605   1.423       .  A
C1903      H1908   1.085       .  S
C1903      C2604   1.423   1_545  A
C1903      C1904   1.423       .  A
C1904      C1905   1.407       .  A
C1905      C1906   1.407   1_545  A
C1906      H1907   1.085       .  S
C1906      C2603   1.428       .  A
C1909      C2018   1.455       .  S
C1909      C1910   1.379       .  A
C1909      C2616   1.394   1_554  A
C1911      C2743   1.458       .  S
C1911      C1912   1.395   1_564  A
C1912      C2011   1.456       .  S
C1913      C1991   1.464       .  S
C1913      C1914   1.406   1_455  A
C1914      C2031   1.457       .  S
C1914      C2611   1.394   1_546  A
C1915      C2071   1.523       .  S
C1915      C1916   1.409       .  A
C1915      C1920   1.382       .  A
C1916      C2051   1.485       .  S
C1916      C1917   1.395       .  A
C1917      C2101   1.477       .  S
C1917      C1918   1.427       .  A
C1918      C2081   1.448       .  S
C1918      C1919   1.417       .  A
C1919      C2061   1.541       .  S
C1919      C1920   1.406       .  A
C1920      C2088   1.379       .  S
C1921      C1961   1.473       .  S
C1921      C1922   1.387       .  A
C1921      C1926   1.406       .  A
C1922      C1931   1.451       .  S
C1922      C1923   1.396       .  A
C1923      C1981   1.467       .  S
C1923      C1924   1.406       .  A
C1924      C1948   1.473       .  S
C1924      C1925   1.392       .  A
C1925      C1941   1.460       .  S
C1925      C1926   1.401       .  A
C1926      C1971   1.465       .  S
C1927      C1928   1.397       .  A
C1927      C1932   1.387       .  A
C1927      F1934   1.358       .  S
C1928      C1929   1.404       .  A
C1929      C1930   1.380       .  A
C1929      F1936   1.357       .  S
C1930      C1931   1.395       .  A
C1930      F1935   1.357       .  S
C1931      C1932   1.402       .  A
C1932      F1933   1.357       .  S
C1937      C1938   1.398       .  A
C1937      C1942   1.390       .  A
C1937      F1944   1.358       .  S
C1938      C1939   1.407       .  A
C1939      C1940   1.384       .  A
C1939      F1946   1.358       .  S
C1940      C1941   1.396       .  A
C1940      F1945   1.358       .  S
C1941      C1942   1.404       .  A
C1942      F1943   1.357       .  S
C1947      C1948   1.400       .  A
C1947      C1952   1.391       .  A
C1947      F1954   1.357       .  S
C1948      C1949   1.401       .  A
C1949      C1950   1.392       .  A
C1949      F1956   1.358       .  S
C1950      C1951   1.406       .  A
C1950      F1955   1.353       .  S
C1951      C1952   1.410       .  A
C1952      F1953   1.358       .  S
C1957      C1958   1.408       .  A
C1957      C1962   1.392       .  A
C1957      F1964   1.351       .  S
C1958      C1959   1.413       .  A
C1959      C1960   1.391       .  A
C1959      F1966   1.358       .  S
C1960      C1961   1.397       .  A
C1960      F1965   1.357       .  S
C1961      C1962   1.400       .  A
C1962      F1963   1.358       .  S
C1967      C1968   1.405       .  A
C1967      C1972   1.383       .  A
C1967      F1974   1.346       .  S
C1968      C1969   1.410       .  A
C1969      C1970   1.393       .  A
C1969      F1976   1.358       .  S
C1970      C1971   1.401       .  A
C1970      F1975   1.358       .  S
C1971      C1972   1.393       .  A
C1972      F1973   1.358       .  S
C1977      C1978   1.409       .  A
C1977      C1982   1.391       .  A
C1977      F1984   1.356       .  S
C1978      C1979   1.406       .  A
C1979      C1980   1.385       .  A
C1979      F1986   1.346       .  S
C1980      C1981   1.394       .  A
C1980      F1985   1.358       .  S
C1981      C1982   1.400       .  A
C1982      F1983   1.357       .  S
C1987      C1992   1.392       .  A
C1987      F1994   1.358       .  S
C1988      C1989   1.399   1_655  A
C1989      C1990   1.382       .  A
C1989      F1996   1.357   1_556  S
C1990      C1991   1.401       .  A
C1990      F1995   1.357   1_556  S
C1992      F1993   1.357       .  S
C1997      C2002   1.391       .  A
C1997      F2004   1.358   1_655  S
C1998      C1999   1.400   1_554  A
C1999      C2000   1.382       .  A
C1999      F2006   1.357       .  S
C2000      C2001   1.400   1_556  A
C2000      F2005   1.358       .  S
C2002      F2003   1.357       .  S
C2007      C2008   1.402   1_554  A
C2007      C2012   1.376       .  A
C2007      F2014   1.358       .  S
C2008      C2009   1.400       .  A
C2009      C2010   1.391       .  A
C2009      F2016   1.358       .  S
C2010      C2011   1.403       .  A
C2010      F2015   1.358       .  S
C2011      C2012   1.396   1_556  A
C2012      F2013   1.357       .  S
C2017      C2018   1.404       .  A
C2017      C2022   1.391       .  A
C2017      F2024   1.358       .  S
C2018      C2019   1.393   1_554  A
C2019      C2020   1.376       .  A
C2019      F2026   1.357       .  S
C2020      C2021   1.404   1_556  A
C2020      F2025   1.355       .  S
C2021      C2022   1.400       .  A
C2022      F2023   1.358       .  S
C2027      C2028   1.407   1_554  A
C2027      C2032   1.379       .  A
C2027      F2034   1.359       .  S
C2028      C2731   1.402       .  A
C2029      C2730   1.402       .  A
C2029      C2030   1.388       .  A
C2029      F2036   1.357       .  S
C2030      C2733   1.401       .  A
C2030      F2035   1.357       .  S
C2031      C2732   1.401       .  A
C2031      C2032   1.396   1_556  A
C2032      F2033   1.358       .  S
C2037      C2740   1.408   1_556  A
C2037      C2042   1.381       .  A
C2037      F2044   1.358       .  S
C2038      C2739   1.408   1_554  A
C2038      C2039   1.399       .  A
C2039      C2040   1.386       .  A
C2039      F2046   1.358       .  S
C2040      C2041   1.401       .  A
C2040      F2045   1.357       .  S
C2041      C2613   1.458       .  S
C2041      C2744   1.396   1_554  A
C2042      C2743   1.396   1_556  A
C2042      F2043   1.359       .  S
C2047      C2048   1.401       .  A
C2047      C2052   1.386       .  A
C2047      F2054   1.356       .  S
C2048      C2049   1.399       .  A
C2049      C2050   1.398       .  A
C2049      F2056   1.358       .  S
C2050      C2051   1.408       .  A
C2050      F2055   1.354       .  S
C2051      C2052   1.406       .  A
C2052      F2053   1.354       .  S
C2057      C2058   1.404       .  A
C2057      C2062   1.399       .  A
C2057      F2064   1.352       .  S
C2058      C2059   1.399       .  A
C2059      C2060   1.389       .  A
C2059      F2066   1.354       .  S
C2060      C2061   1.407       .  A
C2060      F2065   1.358       .  S
C2061      C2062   1.411       .  A
C2062      F2063   1.354       .  S
C2067      C2068   1.366       .  A
C2067      C2072   1.482       .  A
C2067      F2074   1.360       .  S
C2068      C2069   1.376       .  A
C2069      C2070   1.378       .  A
C2069      F2076   1.357       .  S
C2070      C2071   1.419       .  A
C2070      F2075   1.351       .  S
C2071      C2072   1.532       .  A
C2072      F2073   2.351       .  S
C2077      C2078   1.403       .  A
C2077      C2082   1.378       .  A
C2077      F2084   1.350       .  S
C2078      C2079   1.411       .  A
C2079      C2080   1.388       .  A
C2079      F2086   1.359       .  S
C2080      C2081   1.398       .  A
C2080      F2085   1.358       .  S
C2081      C2082   1.396       .  A
C2082      F2083   1.359       .  S
C2087      C2088   1.865       .  A
C2087      C2092   1.835       .  A
C2087      F2094   1.352       .  S
C2088      C2089   1.860       .  A
C2089      C2090   1.846       .  A
C2089      F2096   1.355       .  S
C2090      C2091   1.872       .  A
C2090      F2095   1.346       .  S
C2091      C2092   1.848       .  A
C2092      F2093   1.344       .  S
C2097      C2098   1.403       .  A
C2097      C2102   1.391       .  A
C2097      F2104   1.354       .  S
C2098      C2099   1.414       .  A
C2099      C2100   1.393       .  A
C2099      F2106   1.355       .  S
C2100      C2101   1.396       .  A
C2100      F2105   1.358       .  S
C2101      C2102   1.405       .  A
C2102      F2103   1.358       .  S
O2107     Mg2109   2.154       .  S
O2107     Mg2115   2.182       .  S
O2107      C2142   1.236       .  S
C2108      O2121   1.238       .  S
C2108      O2145   1.270       .  A
C2108      H2147   1.081       .  S
Mg2109     O2138   2.177       .  S
Mg2109     O2149   2.191       .  S
Mg2109     O2120   2.275       .  S
O2110     Mg2152   2.126       .  S
O2110     Mg2135   2.159       .  S
O2110      C2131   1.250       .  S
O2111      C2142   1.269       .  A
O2111     Mg2135   2.303       .  S
C2112      O2114   1.294       .  A
C2112      O2126   1.283       .  A
C2112      C2596   1.542       .  S
O2113      C2141   1.281       .  A
O2113     Mg2115   2.330       .  S
O2114     Mg2146   2.460       .  S
Mg2115     O2121   2.070       .  S
C2116      O2154   1.250       .  A
C2116      O2122   1.249       .  A
C2116      C2793   1.430       .  S
O2117      C2124   1.277       .  A
H2118      C2131   1.081       .  S
C2119      O2133   1.237       .  S
C2119      O2134   1.270       .  A
C2119      H2144   1.081       .  S
O2120      C2143   1.265       .  A
O2121     Mg2135   2.175       .  S
O2122     Mg2152   2.200       .  S
C2123      O2136   1.259       .  A
C2123      O2128   1.295       .  A
C2123      C2156   1.498       .  S
C2124      C2164   1.524       .  S
Mg2125     O2133   2.176       .  S
Mg2125     O2126   2.330       .  S
Mg2125     O2127   2.351       .  S
Mg2125     O2154   2.215       .  S
Mg2125     O2132   2.100       .  S
O2127      C2131   1.286       .  A
O2128     Mg2135   2.463       .  S
O2129      C2148   1.253   1_455  A
O2130      C2150   1.293       .  A
O2130     Mg2146   2.407       .  S
O2132     Mg2146   2.224       .  S
O2132      C2143   1.263       .  A
O2133     Mg2152   2.155       .  S
O2134     Mg2146   2.293       .  S
Mg2135     O2151   2.422       .  S
O2136     Mg2152   2.189       .  S
H2137      C2142   1.081       .  S
O2138     Mg2146   2.187       .  S
O2138      C2141   1.246       .  S
H2139      C2141   1.081       .  S
H2140      C2143   1.081       .  S
O2145     Mg2152   2.277       .  S
C2148      O2153   1.266   1_655  A
C2148      C2800   1.474       .  S
O2149      C2150   1.267       .  A
C2150      C2588   1.477       .  S
C2155      C2156   1.411       .  A
C2155      C2160   1.398       .  A
C2156      C2157   1.436       .  A
C2157      H2162   1.084       .  S
C2157      C2158   1.436       .  A
C2158      C2340   1.522       .  S
C2158      C2159   1.428       .  A
C2159      C2291   1.480       .  S
C2159      C2160   1.406       .  A
C2160      H2161   1.087       .  S
C2163      C2224   1.518       .  S
C2163      C2164   1.445       .  A
C2163      C2168   1.442       .  A
C2164      C2165   1.424       .  A
C2165      H2170   1.086       .  S
C2165      C2166   1.411       .  A
C2166      C2376   1.474       .  S
C2166      C2167   1.399       .  A
C2167      C2292   1.506       .  S
C2167      C2168   1.413       .  A
C2168      H2169   1.084       .  S
O2171     Mg2173   2.179   1_565  S
O2171     Mg2179   2.150       .  S
O2171      C2206   1.239       .  S
C2172      O2185   1.237       .  S
C2172      O2209   1.270       .  A
C2172      H2211   1.081       .  S
Mg2173     O2202   2.143   1_545  S
Mg2173     O2184   2.269   1_545  S
O2174     Mg2216   2.109       .  S
O2174     Mg2199   2.129       .  S
O2174      C2195   1.250       .  S
O2175      C2206   1.275       .  A
O2175     Mg2199   2.326       .  S
C2176      O2190   1.275   1_655  A
C2176      C2268   1.514       .  S
O2177      C2205   1.273       .  A
O2177     Mg2179   2.310       .  S
O2178     Mg2210   2.388       .  S
Mg2179     O2185   2.094       .  S
Mg2179     O2181   2.192       .  S
C2180      O2218   1.256       .  A
C2180      O2186   1.264       .  A
C2180      C2780   1.453   1_455  S
O2181      C2188   1.258       .  A
H2182      C2195   1.081       .  S
C2183      O2198   1.269       .  A
C2183      H2208   1.078       .  S
C2183      O2197   1.263       .  A
O2184      C2207   1.264       .  A
O2185     Mg2199   2.180       .  S
C2187      O2200   1.268       .  A
C2187      O2192   1.290       .  A
C2187      C2587   1.494       .  S
C2188      O2215   1.279       .  A
C2188      C2603   1.492       .  S
Mg2189     O2196   2.061       .  S
Mg2189     O2191   2.336       .  S
Mg2189     O2197   2.229       .  S
O2191      C2195   1.285       .  A
O2192     Mg2199   2.433       .  S
O2193      C2212   1.253       .  A
O2194      C2214   1.289       .  A
O2194     Mg2210   2.384   1_545  S
O2196     Mg2210   2.171       .  S
O2196      C2207   1.233       .  S
O2197     Mg2216   2.185       .  S
O2198     Mg2210   2.295       .  S
Mg2199     O2215   2.368       .  S
O2200     Mg2216   2.222       .  S
H2201      C2206   1.081       .  S
O2202     Mg2210   2.157       .  S
O2202      C2205   1.238       .  S
H2203      C2205   1.081       .  S
H2204      C2207   1.081       .  S
O2209     Mg2216   2.300       .  S
C2212      O2217   1.273       .  A
C2212      C2770   1.455       .  S
O2219     Mg2221   2.221       .  S
O2219     Mg2227   2.172       .  S
O2219      C2254   1.240       .  S
C2220      O2233   1.238       .  S
C2220      O2257   1.271       .  A
C2220      H2259   1.081       .  S
Mg2221     O2250   2.097       .  S
Mg2221     O2265   2.215       .  S
Mg2221     O2261   2.277       .  S
Mg2221     O2232   2.305       .  S
O2222     Mg2264   2.113       .  S
O2222     Mg2247   2.145       .  S
O2222      C2243   1.244       .  S
O2223      C2254   1.275       .  A
O2223     Mg2247   2.320       .  S
C2224      O2238   1.274       .  A
O2225      C2253   1.286       .  A
O2225     Mg2227   2.370       .  S
O2226     Mg2258   2.410   1_545  S
Mg2227     O2233   2.121       .  S
Mg2227     O2241   2.308       .  S
Mg2227     O2229   2.323       .  S
C2228      O2266   1.262       .  A
C2228      O2234   1.260       .  A
C2228      C2750   1.455       .  S
O2229      C2236   1.280       .  A
H2230      C2243   1.081       .  S
C2231      O2245   1.238   1_545  S
C2231      O2246   1.273       .  A
C2231      H2256   1.081       .  S
O2232      C2255   1.272       .  A
O2233     Mg2247   2.173       .  S
C2235      O2248   1.271       .  A
C2235      O2240   1.301       .  A
C2235      C2604   1.510       .  S
C2236      O2263   1.291       .  A
C2236      C2595   1.528       .  S
Mg2237     O2244   2.131       .  S
Mg2237     O2245   2.155       .  S
Mg2237     O2239   2.331       .  S
O2239      C2243   1.280       .  A
O2240     Mg2247   2.486       .  S
O2241      C2260   1.259       .  A
O2242      C2262   1.298       .  A
O2242     Mg2258   2.484       .  S
O2244     Mg2258   2.186       .  S
O2244      C2255   1.238       .  S
O2245     Mg2264   2.199       .  S
O2246     Mg2258   2.317   1_545  S
Mg2247     O2263   2.422       .  S
O2248     Mg2264   2.259       .  S
H2249      C2254   1.081       .  S
O2250     Mg2258   2.151       .  S
O2250      C2253   1.248       .  S
H2251      C2253   1.081       .  S
H2252      C2255   1.081       .  S
O2257     Mg2264   2.291       .  S
C2260      O2265   1.248       .  A
C2260      C2760   1.461       .  S
O2261      C2262   1.268       .  A
C2262      C2267   1.511       .  S
C2267      C2268   1.432       .  A
C2267      C2272   1.419       .  A
C2268      C2269   1.424       .  A
C2269      H2274   1.086       .  S
C2269      C2270   1.416       .  A
C2270      C2414   1.515       .  S
C2270      C2271   1.436       .  A
C2271      C2339   1.502       .  S
C2271      C2272   1.427       .  A
C2272      H2273   1.086       .  S
O2275     Mg2277   2.119   1_544  S
O2275      C2310   1.234       .  S
C2276      O2313   1.268       .  A
C2276      H2315   1.081       .  S
C2276      O2289   1.267       .  A
Mg2277     O2321   2.216   1_565  S
Mg2277     O2317   2.152       .  S
Mg2277     O2288   2.278       .  S
O2278     Mg2320   2.135       .  S
O2278     Mg2303   2.151       .  S
O2279      C2310   1.266       .  A
C2280      O2282   1.286       .  A
C2280      O2294   1.276       .  A
C2280      C2475   1.508       .  S
O2281      C2309   1.285       .  A
O2281     Mg2283   2.346   1_556  S
O2282     Mg2314   2.349       .  S
Mg2283     O2297   2.209   1_554  S
Mg2283     O2285   2.315       .  S
Mg2283     O2289   2.142       .  S
C2284      O2322   1.257       .  A
C2284      C2740   1.445       .  S
O2285      C2292   1.277       .  A
H2286      C2299   1.081       .  S
C2287      O2301   1.234       .  S
C2287      O2302   1.266       .  A
C2287      H2312   1.081       .  S
O2288      C2311   1.270       .  A
O2289     Mg2303   2.241       .  S
O2290     Mg2320   2.226       .  S
C2291      O2304   1.269       .  A
C2291      O2296   1.289       .  A
C2292      O2319   1.289       .  A
Mg2293     O2300   2.082       .  S
Mg2293     O2294   2.329       .  S
Mg2293     O2295   2.341   1_556  S
Mg2293     O2322   2.211   1_556  S
O2295      C2299   1.284       .  A
O2296     Mg2303   2.412       .  S
O2297      C2316   1.255       .  A
O2298      C2318   1.288       .  A
O2298     Mg2314   2.418       .  S
O2300     Mg2314   2.164       .  S
O2300      C2311   1.239       .  S
O2301     Mg2320   2.144   1_556  S
Mg2303     O2319   2.359       .  S
O2304     Mg2320   2.207       .  S
H2305      C2310   1.081   1_565  S
O2306      C2309   1.249       .  S
H2307      C2309   1.081       .  S
H2308      C2311   1.081       .  S
O2313     Mg2320   2.280       .  S
C2316      C2730   1.447       .  S
O2317      C2318   1.261       .  A
C2318      C2579   1.477       .  S
O2323     Mg2325   2.143   1_554  S
O2323     Mg2331   2.157       .  S
O2323      C2358   1.235       .  S
C2324      O2337   1.240       .  S
C2324      O2361   1.273       .  A
C2324      H2363   1.081       .  S
Mg2325     O2354   2.119       .  S
Mg2325     O2369   2.245       .  S
Mg2325     O2365   2.200       .  S
Mg2325     O2336   2.284       .  S
O2326     Mg2368   2.119       .  S
O2326     Mg2351   2.166       .  S
O2326      C2347   1.251       .  S
O2327      C2358   1.268       .  A
O2327     Mg2351   2.299       .  S
C2328      O2330   1.288       .  A
C2328      O2342   1.280       .  A
C2328      C2580   1.513       .  S
O2329      C2357   1.285       .  A
O2329     Mg2331   2.344   1_556  S
O2330     Mg2362   2.354       .  S
Mg2331     O2337   2.100       .  S
Mg2331     O2345   2.226   1_554  S
Mg2331     O2333   2.353       .  S
C2332      O2370   1.260       .  A
C2332      O2338   1.260       .  A
C2332      C2723   1.441       .  S
O2333      C2340   1.278       .  A
H2334      C2347   1.081       .  S
C2335      O2349   1.235       .  S
C2335      O2350   1.267       .  A
C2335      H2360   1.081       .  S
O2336      C2359   1.272       .  A
O2337     Mg2351   2.157       .  S
O2338     Mg2368   2.253       .  S
C2339      O2352   1.270       .  A
C2339      O2344   1.296       .  A
C2340      O2367   1.293       .  A
Mg2341     O2348   2.097       .  S
Mg2341     O2349   2.160       .  S
Mg2341     O2342   2.357       .  S
Mg2341     O2343   2.350   1_556  S
Mg2341     O2370   2.236   1_556  S
O2343      C2347   1.287       .  A
O2344     Mg2351   2.473       .  S
O2345      C2364   1.259       .  A
O2346      C2366   1.291       .  A
O2346     Mg2362   2.441       .  S
O2348     Mg2362   2.165       .  S
O2348      C2359   1.240       .  S
O2349     Mg2368   2.147   1_556  S
O2350     Mg2362   2.295       .  S
Mg2351     O2367   2.390       .  S
O2352     Mg2368   2.223       .  S
H2353      C2358   1.081       .  S
O2354     Mg2362   2.148       .  S
O2354      C2357   1.249       .  S
H2355      C2357   1.081       .  S
H2356      C2359   1.081       .  S
O2361     Mg2368   2.290       .  S
C2364      O2369   1.256       .  A
C2364      C2710   1.438       .  S
O2365      C2366   1.267       .  A
C2366      C2467   1.487       .  S
O2371     Mg2373   2.294   1_556  S
O2371      C2406   1.262       .  A
C2372      O2385   1.235       .  S
C2372      O2409   1.267       .  A
C2372      H2411   1.081       .  S
Mg2373     O2402   2.123       .  S
Mg2373     O2417   2.195   1_655  S
Mg2373     O2413   2.246       .  S
Mg2373     O2384   2.276       .  S
O2374     Mg2416   2.117       .  S
O2374     Mg2399   2.093       .  S
O2375      C2406   1.270   1_455  A
C2376      O2378   1.286       .  A
C2376      O2390   1.271       .  A
O2377      C2405   1.285       .  A
O2377     Mg2379   2.352   1_554  S
O2378     Mg2410   2.311       .  S
Mg2379     O2385   2.120       .  S
Mg2379     O2393   2.264   1_556  S
Mg2379     O2381   2.278       .  S
C2380      O2418   1.257       .  A
C2380      C2690   1.443       .  S
O2381      C2388   1.272       .  A
H2382      C2395   1.081       .  S
C2383      O2398   1.268       .  A
C2383      H2408   1.080       .  S
C2383      O2397   1.261       .  A
O2384      C2407   1.267       .  A
O2385     Mg2399   2.195       .  S
O2386     Mg2416   2.200       .  S
C2387      O2400   1.266       .  A
C2387      O2392   1.301       .  A
C2387      C2468   1.513       .  S
C2388      O2415   1.288       .  A
C2388      C2476   1.479       .  S
Mg2389     O2396   2.126       .  S
Mg2389     O2390   2.266       .  S
Mg2389     O2391   2.352   1_554  S
Mg2389     O2418   2.274   1_554  S
O2391      C2395   1.285       .  A
O2392     Mg2399   2.509       .  S
O2393      C2412   1.257       .  A
O2394      C2414   1.298       .  A
O2394     Mg2410   2.487       .  S
O2396     Mg2410   2.203       .  S
O2396      C2407   1.235       .  S
O2397     Mg2416   2.279   1_554  S
Mg2399     O2415   2.326       .  S
O2400     Mg2416   2.224       .  S
H2401      C2406   1.080       .  S
O2402     Mg2410   2.096       .  S
H2403      C2405   1.081       .  S
H2404      C2407   1.081       .  S
O2409     Mg2416   2.274       .  S
C2412      C2700   1.442       .  S
O2413      C2414   1.269       .  A
O2419     Mg2421   2.160       .  S
O2419     Mg2427   2.175       .  S
O2419      C2454   1.239       .  S
C2420      O2433   1.237       .  S
C2420      O2457   1.270       .  A
C2420      H2459   1.081       .  S
Mg2421     O2450   2.108       .  S
Mg2421     O2461   2.242       .  S
Mg2421     O2432   2.293       .  S
O2422     Mg2464   2.109       .  S
O2422     Mg2447   2.134       .  S
O2422      C2443   1.244       .  S
O2423      C2454   1.274       .  A
O2423     Mg2447   2.313       .  S
C2424      O2426   1.282       .  A
C2424      O2438   1.266       .  A
C2424      C2598   1.509       .  S
O2425      C2453   1.279       .  A
O2425     Mg2427   2.325       .  S
O2426     Mg2458   2.376       .  S
Mg2427     O2433   2.088       .  S
C2428      O2466   1.258       .  A
C2428      O2434   1.263       .  A
C2428      C2670   1.469       .  S
O2429      C2436   1.272   1_545  A
H2430      C2443   1.081       .  S
C2431      O2445   1.239       .  S
C2431      O2446   1.274       .  A
C2431      H2456   1.081       .  S
O2432      C2455   1.270       .  A
O2433     Mg2447   2.165       .  S
O2434     Mg2464   2.242       .  S
C2435      O2448   1.264       .  A
C2435      O2440   1.287       .  A
C2435      C2471   1.492       .  S
C2436      C2479   1.498       .  S
Mg2437     O2444   2.088       .  S
Mg2437     O2445   2.166       .  S
Mg2437     O2438   2.231       .  S
Mg2437     O2439   2.324       .  S
Mg2437     O2466   2.245       .  S
O2439      C2443   1.279       .  A
O2440     Mg2447   2.417       .  S
O2441      C2460   1.259       .  A
O2442      C2462   1.291       .  A
O2442     Mg2458   2.439       .  S
O2444     Mg2458   2.172       .  S
O2444      C2455   1.238       .  S
O2445     Mg2464   2.149       .  S
O2446     Mg2458   2.313       .  S
Mg2447     O2463   2.346       .  S
O2448     Mg2464   2.229       .  S
H2449      C2454   1.081       .  S
O2450     Mg2458   2.135       .  S
O2450      C2453   1.245       .  S
H2451      C2453   1.081       .  S
H2452      C2455   1.081       .  S
O2457     Mg2464   2.292       .  S
C2460      O2465   1.262       .  A
C2460      C2680   1.471   1_545  S
O2461      C2462   1.265       .  A
C2462      C2607   1.500       .  S
C2467      C2468   1.440       .  A
C2467      C2472   1.424       .  A
C2468      C2469   1.418       .  A
C2469      H2474   1.086       .  S
C2469      C2470   1.414       .  A
C2470      C2471   1.402       .  A
C2471      C2472   1.405       .  A
C2472      H2473   1.086       .  S
C2475      C2476   1.408       .  A
C2475      C2480   1.402       .  A
C2476      C2477   1.431       .  A
C2477      H2482   1.084       .  S
C2477      C2478   1.429       .  A
C2478      C2479   1.436       .  A
C2479      C2480   1.427       .  A
C2480      H2481   1.085       .  S
O2483     Mg2485   2.133       .  S
O2483     Mg2491   2.188       .  S
O2483      C2518   1.237       .  S
C2484      O2497   1.236       .  S
C2484      O2521   1.267       .  A
C2484      H2523   1.081       .  S
Mg2485     O2514   2.156       .  S
Mg2485     O2496   2.276       .  S
O2486     Mg2528   2.154       .  S
O2486     Mg2511   2.176       .  S
O2486      C2507   1.244       .  S
O2487      C2518   1.269       .  A
O2487     Mg2511   2.292       .  S
C2488      O2502   1.272       .  A
C2488      C2583   1.527       .  S
O2489      C2517   1.280       .  A
O2489     Mg2491   2.329       .  S
O2490     Mg2522   2.443       .  S
Mg2491     O2497   2.057       .  S
Mg2491     O2493   2.287       .  S
C2492      O2530   1.253   1_565  A
C2492      O2498   1.267   1_565  A
C2492      C2653   1.471       .  S
O2493      C2500   1.275       .  A
H2494      C2507   1.081       .  S
C2495      O2509   1.237       .  S
C2495      O2510   1.268       .  A
C2495      H2520   1.081       .  S
O2496      C2519   1.266       .  A
O2497     Mg2511   2.160       .  S
C2499      O2512   1.266       .  A
C2499      O2504   1.292       .  A
C2499      C2606   1.473       .  S
C2500      O2527   1.290       .  A
C2500      C2590   1.531       .  S
Mg2501     O2508   2.050       .  S
Mg2501     O2509   2.178       .  S
Mg2501     O2503   2.320       .  S
O2503      C2507   1.278       .  A
O2504     Mg2511   2.409       .  S
O2505      C2524   1.251       .  A
O2506      C2526   1.288   1_655  A
O2506     Mg2522   2.384       .  S
O2508     Mg2522   2.167       .  S
O2508      C2519   1.235       .  S
O2509     Mg2528   2.129       .  S
O2510     Mg2522   2.288       .  S
Mg2511     O2527   2.444       .  S
O2512     Mg2528   2.182       .  S
H2513      C2518   1.081       .  S
O2514     Mg2522   2.183       .  S
O2514      C2517   1.245       .  S
H2515      C2517   1.081       .  S
H2516      C2519   1.081       .  S
O2521     Mg2528   2.275       .  S
C2524      O2529   1.266       .  A
C2524      C2660   1.477       .  S
O2531     Mg2533   2.164       .  S
O2531     Mg2539   2.166       .  S
O2531      C2566   1.235       .  S
C2532      O2545   1.239       .  S
C2532      O2569   1.271       .  A
C2532      H2571   1.081       .  S
Mg2533     O2562   2.124       .  S
Mg2533     O2573   2.239       .  S
Mg2533     O2544   2.287       .  S
O2534     Mg2576   2.130       .  S
O2534     Mg2559   2.177       .  S
O2534      C2555   1.250       .  S
O2535      C2566   1.269       .  A
O2535     Mg2559   2.299       .  S
C2536      O2538   1.293       .  A
C2536      O2550   1.278       .  A
C2536      C2599   1.526       .  S
O2537      C2565   1.286       .  A
O2537     Mg2539   2.350       .  S
O2538     Mg2570   2.399       .  S
Mg2539     O2545   2.107       .  S
C2540      O2578   1.258       .  A
C2540      O2546   1.260       .  A
C2540      C2640   1.447       .  S
H2542      C2555   1.081       .  S
C2543      O2557   1.234       .  S
C2543      O2558   1.269       .  A
C2543      H2568   1.081       .  S
O2544      C2567   1.272       .  A
O2545     Mg2559   2.165       .  S
O2546     Mg2576   2.245       .  S
C2547      O2560   1.269       .  A
C2547      O2552   1.299       .  A
C2547      C2582   1.504       .  S
C2548      O2575   1.296   1_455  A
Mg2549     O2556   2.113       .  S
Mg2549     O2557   2.162       .  S
Mg2549     O2550   2.352       .  S
Mg2549     O2551   2.354       .  S
Mg2549     O2578   2.224       .  S
O2551      C2555   1.286       .  A
O2552     Mg2559   2.489       .  S
O2553      C2572   1.258       .  A
O2554      C2574   1.297       .  A
O2554     Mg2570   2.486       .  S
O2556     Mg2570   2.175       .  S
O2556      C2567   1.240       .  S
O2557     Mg2576   2.163       .  S
O2558     Mg2570   2.304       .  S
Mg2559     O2575   2.422       .  S
O2560     Mg2576   2.219       .  S
H2561      C2566   1.081       .  S
O2562     Mg2570   2.165       .  S
O2562      C2565   1.251       .  S
H2563      C2565   1.081       .  S
H2564      C2567   1.081       .  S
O2569     Mg2576   2.285       .  S
C2572      O2577   1.258       .  A
C2572      C2630   1.437       .  S
O2573      C2574   1.271       .  A
C2574      C2591   1.509       .  S
C2579      C2580   1.409       .  A
C2579      C2584   1.405       .  A
C2580      C2581   1.426       .  A
C2581      H2586   1.085       .  S
C2581      C2582   1.442       .  A
C2582      C2583   1.440       .  A
C2583      C2584   1.415       .  A
C2584      H2585   1.087       .  S
C2587      C2588   1.397       .  A
C2587      C2592   1.417       .  A
C2588      C2589   1.407       .  A
C2589      H2594   1.086       .  S
C2590      C2591   1.450       .  A
C2592      H2593   1.085       .  S
C2595      C2596   1.448       .  A
C2595      C2600   1.449       .  A
C2596      C2597   1.418       .  A
C2597      H2602   1.084       .  S
C2597      C2598   1.423       .  A
C2598      C2599   1.419       .  A
C2599      C2600   1.428       .  A
C2600      H2601   1.084       .  S
C2603      C2604   1.428       .  A
C2605      H2610   1.085       .  S
C2605      C2606   1.423       .  A
C2606      C2607   1.407       .  A
C2607      C2608   1.407       .  A
C2608      H2609   1.085       .  S
C2611      C2720   1.455       .  S
C2611      C2612   1.379       .  A
C2613      C2614   1.395   1_554  A
C2614      C2713   1.456       .  S
C2615      C2693   1.464       .  S
C2615      C2616   1.406   1_455  A
C2616      C2733   1.457       .  S
C2617      C2773   1.523       .  S
C2617      C2618   1.408       .  A
C2617      C2622   1.382       .  A
C2618      C2753   1.485       .  S
C2618      C2619   1.395       .  A
C2619      C2803   1.477       .  S
C2619      C2620   1.427       .  A
C2620      C2783   1.448       .  S
C2620      C2621   1.417       .  A
C2621      C2763   1.541       .  S
C2621      C2622   1.406       .  A
C2622      C2790   1.379       .  S
C2623      C2663   1.474       .  S
C2623      C2624   1.387       .  A
C2623      C2628   1.406       .  A
C2624      C2633   1.451       .  S
C2624      C2625   1.396       .  A
C2625      C2683   1.467       .  S
C2625      C2626   1.406       .  A
C2626      C2650   1.474       .  S
C2626      C2627   1.392       .  A
C2627      C2643   1.460       .  S
C2627      C2628   1.401       .  A
C2628      C2673   1.465       .  S
C2629      C2630   1.397       .  A
C2629      C2634   1.387       .  A
C2629      F2636   1.358       .  S
C2630      C2631   1.404       .  A
C2631      C2632   1.381       .  A
C2631      F2638   1.357       .  S
C2632      C2633   1.395       .  A
C2632      F2637   1.357       .  S
C2633      C2634   1.402       .  A
C2634      F2635   1.357       .  S
C2639      C2640   1.398       .  A
C2639      C2644   1.390       .  A
C2639      F2646   1.358       .  S
C2640      C2641   1.407       .  A
C2641      C2642   1.383       .  A
C2641      F2648   1.358       .  S
C2642      C2643   1.396       .  A
C2642      F2647   1.358       .  S
C2643      C2644   1.404       .  A
C2644      F2645   1.357       .  S
C2649      C2650   1.400       .  A
C2649      C2654   1.391       .  A
C2649      F2656   1.357       .  S
C2650      C2651   1.401       .  A
C2651      C2652   1.393       .  A
C2651      F2658   1.358       .  S
C2652      C2653   1.406       .  A
C2652      F2657   1.353       .  S
C2653      C2654   1.410       .  A
C2654      F2655   1.358       .  S
C2659      C2660   1.408       .  A
C2659      C2664   1.392       .  A
C2659      F2666   1.351       .  S
C2660      C2661   1.413       .  A
C2661      C2662   1.391       .  A
C2661      F2668   1.358       .  S
C2662      C2663   1.397       .  A
C2662      F2667   1.357       .  S
C2663      C2664   1.400       .  A
C2664      F2665   1.358       .  S
C2669      C2670   1.405       .  A
C2669      C2674   1.383       .  A
C2669      F2676   1.346       .  S
C2670      C2671   1.410       .  A
C2671      C2672   1.393       .  A
C2671      F2678   1.358       .  S
C2672      C2673   1.401       .  A
C2672      F2677   1.358       .  S
C2673      C2674   1.393       .  A
C2674      F2675   1.358       .  S
C2679      C2680   1.409       .  A
C2679      C2684   1.391       .  A
C2679      F2686   1.356       .  S
C2680      C2681   1.406       .  A
C2681      C2682   1.384       .  A
C2681      F2688   1.346       .  S
C2682      C2683   1.394       .  A
C2682      F2687   1.358       .  S
C2683      C2684   1.400       .  A
C2684      F2685   1.357       .  S
C2689      C2694   1.393       .  A
C2689      F2696   1.358       .  S
C2690      C2691   1.399   1_655  A
C2691      C2692   1.383       .  A
C2691      F2698   1.357   1_556  S
C2692      C2693   1.401       .  A
C2692      F2697   1.357   1_556  S
C2694      F2695   1.357       .  S
C2699      C2704   1.391       .  A
C2699      F2706   1.358   1_655  S
C2700      C2701   1.400   1_554  A
C2701      C2702   1.382       .  A
C2701      F2708   1.357       .  S
C2702      C2703   1.400   1_556  A
C2702      F2707   1.358       .  S
C2704      F2705   1.357       .  S
C2709      C2710   1.402   1_554  A
C2709      C2714   1.376       .  A
C2709      F2716   1.358       .  S
C2710      C2711   1.400       .  A
C2711      C2712   1.391       .  A
C2711      F2718   1.358       .  S
C2712      C2713   1.403       .  A
C2712      F2717   1.358       .  S
C2713      C2714   1.396   1_556  A
C2714      F2715   1.357       .  S
C2719      C2720   1.404       .  A
C2719      C2724   1.391       .  A
C2719      F2726   1.358       .  S
C2720      C2721   1.393   1_554  A
C2721      C2722   1.376       .  A
C2721      F2728   1.357       .  S
C2722      C2723   1.404   1_556  A
C2722      F2727   1.355       .  S
C2723      C2724   1.400       .  A
C2724      F2725   1.358       .  S
C2729      C2730   1.407   1_554  A
C2729      C2734   1.379       .  A
C2729      F2736   1.359       .  S
C2731      C2732   1.388       .  A
C2731      F2738   1.357       .  S
C2732      F2737   1.357   1_545  S
C2733      C2734   1.396   1_556  A
C2734      F2735   1.358       .  S
C2739      C2744   1.382       .  A
C2739      F2746   1.358       .  S
C2740      C2741   1.399       .  A
C2741      C2742   1.386       .  A
C2741      F2748   1.358       .  S
C2742      C2743   1.401       .  A
C2742      F2747   1.357       .  S
C2744      F2745   1.359       .  S
C2749      C2750   1.401       .  A
C2749      C2754   1.386       .  A
C2749      F2756   1.356       .  S
C2750      C2751   1.399       .  A
C2751      C2752   1.398       .  A
C2751      F2758   1.358       .  S
C2752      C2753   1.408       .  A
C2752      F2757   1.353       .  S
C2753      C2754   1.406       .  A
C2754      F2755   1.354       .  S
C2759      C2760   1.404       .  A
C2759      C2764   1.399       .  A
C2759      F2766   1.352       .  S
C2760      C2761   1.399       .  A
C2761      C2762   1.389       .  A
C2761      F2768   1.354       .  S
C2762      C2763   1.407       .  A
C2762      F2767   1.358       .  S
C2763      C2764   1.411       .  A
C2764      F2765   1.354       .  S
C2769      C2770   1.366       .  A
C2769      C2774   1.482       .  A
C2769      F2776   1.360       .  S
C2770      C2771   1.376       .  A
C2771      C2772   1.378       .  A
C2771      F2778   1.357       .  S
C2772      C2773   1.419       .  A
C2772      F2777   1.351       .  S
C2773      C2774   1.532       .  A
C2774      F2775   2.351       .  S
C2779      C2780   1.403       .  A
C2779      C2784   1.378       .  A
C2779      F2786   1.350       .  S
C2780      C2781   1.411       .  A
C2781      C2782   1.388       .  A
C2781      F2788   1.359       .  S
C2782      C2783   1.398       .  A
C2782      F2787   1.358       .  S
C2783      C2784   1.396       .  A
C2784      F2785   1.359       .  S
C2789      C2790   1.865       .  A
C2789      C2794   1.835       .  A
C2789      F2796   1.352       .  S
C2790      C2791   1.860       .  A
C2791      C2792   1.846       .  A
C2791      F2798   1.355       .  S
C2792      C2793   1.872       .  A
C2792      F2797   1.346       .  S
C2793      C2794   1.849       .  A
C2794      F2795   1.344       .  S
C2799      C2800   1.403       .  A
C2799      C2804   1.390       .  A
C2799      F2806   1.354       .  S
C2800      C2801   1.414       .  A
C2801      C2802   1.392       .  A
C2801      F2808   1.355       .  S
C2802      C2803   1.396       .  A
C2802      F2807   1.358       .  S
C2803      C2804   1.405       .  A
C2804      F2805   1.358       .  S
