geometry optimzed in LAMMPS
_audit_creation_date              2020-11-30 
_audit_creation_method            'lammps2cif' 
_symmetry_space_group_name_H-M    'P1' 
_symmetry_Int_Tables_number       1 
_symmetry_cell_setting            triclinic 
loop_ 
_symmetry_equiv_pos_as_xyz 
  x,y,z 
_cell_length_a                    31.49892271 
_cell_length_b                    31.69076520070623 
_cell_length_c                    31.587002570266506 
_cell_angle_alpha                 90.68332234769508 
_cell_angle_beta                  89.29662315927416 
_cell_angle_gamma                 91.81721247695577 
loop_ 
_atom_site_label 
_atom_site_type_symbol 
_atom_site_fract_x 
_atom_site_fract_y 
_atom_site_fract_z 
_atom_site_charge 
O1          O  0.49594172  0.39751844  0.06701407    -0.73400
O2          O  0.50984278  0.44950868  0.11625326    -0.52300
C3          C  0.50677078  0.41027234  0.10396353     0.80400
O4          O  0.58557764  0.53318513  0.91294600    -0.58000
O5          O  0.54474236  0.49546297  0.86862169    -0.51000
C6          C  0.58170732  0.50915368  0.88060534     0.72400
O7          O  0.61607428  0.50256839  0.04853524    -0.72500
O8          O  0.57387063  0.51222758  0.10704549    -0.53100
C9          C  0.61006001  0.50499044  0.08880909     0.78400
O10         O  0.46691212  0.38921575  0.93406576    -0.57700
O11         O  0.46903451  0.43413331  0.87797700    -0.50800
C12         C  0.46541456  0.39675926  0.89445868     0.75000
Zr13       Zr  0.47964447  0.42581323  0.99960632     2.54700
O14         O  0.52696635  0.36685169  0.99158283    -0.78200
O15         O  0.41739723  0.38075596  0.01506207    -0.91600
Zr16       Zr  0.57680851  0.50422763  0.98289357     2.64700
O17         O  0.60887275  0.43729035  0.96475044    -0.96600
O18         O  0.64877384  0.53379997  0.97470682    -0.78700
O19         O  0.53347969  0.46772654  0.03252761    -0.82000
O20         O  0.52360863  0.46126210  0.94935342    -2.16700
O21         O  0.36600480  0.52665257  0.93967546    -0.65400
O22         O  0.40658354  0.51160329  0.88131851    -0.50000
C23         C  0.37123413  0.52182991  0.89951335     0.73400
O24         O  0.51009193  0.63446418  0.05534953    -0.58300
O25         O  0.51232330  0.58903492  0.11098814    -0.50300
C26         C  0.51474125  0.62647393  0.09462035     0.75200
O27         O  0.49518224  0.62570708  0.91913750    -0.69700
O28         O  0.47794149  0.57360805  0.87085955    -0.48400
C29         C  0.48476852  0.61277146  0.88204416     0.76500
O30         O  0.40497002  0.55904805  0.07073899    -0.65000
O31         O  0.43418172  0.52097724  0.12038170    -0.52200
C32         C  0.40187041  0.53991774  0.10586479     0.74900
Zr33       Zr  0.40327308  0.51854545  0.00597023     2.77500
O34         O  0.33488562  0.55112269  0.01767174    -0.95800
O35         O  0.35737064  0.46045162  0.03088009    -0.76600
Zr36       Zr  0.50038541  0.59774809  0.98914849     2.70100
O37         O  0.45298883  0.65699153  0.99058258    -0.77900
O38         O  0.56561135  0.64054226  0.98204907    -0.96900
Zr39       Zr  0.50132098  0.51735097  0.07919658     2.21500
Zr40       Zr  0.47876414  0.50615562  0.90977303     2.11100
O41         O  0.44575455  0.55647090  0.95606200    -2.45600
O42         O  0.45696780  0.56161131  0.03876187    -0.77700
O43         O  0.43476965  0.46859127  0.96013440    -0.69900
O44         O  0.54520880  0.55452293  0.02843183    -2.30800
O45         O  0.44627890  0.47383037  0.04608280    -2.27000
O46         O  0.53300915  0.54887752  0.94386677    -0.71600
H47         H  0.53660948  0.44087569  0.93076422     0.80400
H48         H  0.56697002  0.57166078  0.04224128     0.81500
H49         H  0.42843210  0.57539258  0.94055323     0.83700
H50         H  0.42974463  0.45862484  0.06724473     0.81300
H51         H  0.66139892  0.51810654  0.95062253     0.44300
H52         H  0.58478345  0.62300408  0.96469162     0.43300
H53         H  0.43085684  0.64916513  0.01185155     0.43000
H54         H  0.33608940  0.57704960  0.00046227     0.40900
H55         H  0.34942086  0.44453683  0.00486090     0.44100
H56         H  0.41101341  0.38564083  0.04545699     0.38800
H57         H  0.50791965  0.34146110  0.98951965     0.45000
H58         H  0.63842157  0.44472223  0.95604205     0.41400
H59         H  0.31358762  0.53221350  0.00365517     0.46300
H60         H  0.42802210  0.35169061  0.01372620     0.45000
H61         H  0.61164938  0.42300552  0.99223953     0.45100
H62         H  0.55831953  0.66404493  0.96337887     0.45500
N63         N  0.20605394  0.52596082  0.20350979    -0.01500
C64         C  0.19911241  0.53060320  0.24607385     0.01000
C65         C  0.23343971  0.55016457  0.26566404    -0.21800
C66         C  0.26322436  0.55765225  0.23503488    -0.22000
C67         C  0.24633692  0.54244971  0.19753520     0.00900
H68         H  0.23704823  0.55648003  0.29921210     0.14700
H69         H  0.29521854  0.57010279  0.23995375     0.14800
N70         N  0.77995985  0.46013635  0.21413423    -0.01500
C71         C  0.78017497  0.44147095  0.25312448     0.01000
C72         C  0.74151406  0.42122761  0.26155853    -0.21800
C73         C  0.71600031  0.42819683  0.22810770    -0.22000
C74         C  0.73957068  0.45236774  0.19987993     0.00900
H75         H  0.73138587  0.40668929  0.29099470     0.14700
H76         H  0.68254998  0.41955483  0.22606405     0.14800
N77         N  0.18932677  0.53337757  0.78852447    -0.01500
C78         C  0.22280601  0.55816307  0.80205510     0.01000
C79         C  0.23021976  0.59215588  0.77594962    -0.21800
C80         C  0.20258096  0.58729297  0.74335253    -0.22000
C81         C  0.18007445  0.54955966  0.74972374     0.00900
H82         H  0.25612567  0.61534669  0.77788451     0.14700
H83         H  0.20257729  0.60673298  0.71541835     0.14800
N84         N  0.77563636  0.46067550  0.80398988    -0.01500
C85         C  0.73560768  0.44347712  0.81050520     0.01000
C86         C  0.72345334  0.41816671  0.77642485    -0.21800
C87         C  0.75551279  0.42038642  0.74742073    -0.22000
C88         C  0.78660845  0.44656619  0.76453035     0.00900
H89         H  0.69236974  0.40377116  0.77082881     0.14700
H90         H  0.75482479  0.40725746  0.71562246     0.14800
N91         N  0.99315705  0.48683522  0.07057036    -0.34700
N92         N  0.05626879  0.49732592  0.00125723    -0.55200
N93         N  0.98643260  0.49546457  0.93924600    -0.34700
N94         N  0.92341452  0.48545899  0.00838607    -0.55200
C95         C  0.02890807  0.49438692  0.09382175     0.28900
C96         C  0.95900661  0.48658816  0.09757828     0.28900
C97         C  0.02060687  0.49264532  0.91261424     0.28900
C98         C  0.95082848  0.48672508  0.91620366     0.28900
C99         C  0.08340003  0.50019442  0.03443688     0.37500
C100        C  0.07996367  0.50180080  0.96519225     0.37500
C101        C  0.89958409  0.48081179  0.04436310     0.37500
C102        C  0.89622282  0.48422158  0.97518106     0.37500
C103        C  0.01709068  0.49822216  0.13613347    -0.20000
C104        C  0.97350469  0.49321089  0.13848141    -0.20000
C105        C  0.00637128  0.48228117  0.87231157    -0.20000
C106        C  0.96273509  0.47859415  0.87454917    -0.20000
C107        C  0.12461988  0.50590155  0.01905255    -0.21000
C108        C  0.12239276  0.50750445  0.97565868    -0.21000
C109        C  0.85707317  0.47628729  0.03365864    -0.21000
C110        C  0.85493103  0.47901084  0.99033558    -0.21000
C111        C  0.07195532  0.49899948  0.07850999    -0.16400
C112        C  0.91491290  0.48147566  0.08694486    -0.16400
C113        C  0.90773030  0.48515162  0.93118918    -0.16400
C114        C  0.06443578  0.49974844  0.92280711    -0.16400
H115        H  0.03761586  0.50482016  0.16277933     0.16500
H116        H  0.95458009  0.49523115  0.16721406     0.16500
H117        H  0.02551971  0.47732783  0.84410697     0.16500
H118        H  0.94215044  0.47016746  0.84839073     0.16500
H119        H  0.15354950  0.50893331  0.03709004     0.14800
H120        H  0.14925561  0.51204898  0.95435599     0.14800
H121        H  0.83009995  0.47148197  0.05477491     0.14800
H122        H  0.82609034  0.47654062  0.97209581     0.14800
H123        H  0.99219630  0.48025499  0.03841078     0.28100
H124        H  0.98720826  0.50607892  0.97042964     0.28100
O125        O  0.04695614  0.49877214  0.37783525    -0.73400
O126        O  0.10350272  0.49204197  0.42165781    -0.52300
C127        C  0.08681334  0.49774700  0.38485874     0.80400
O128        O  0.92355099  0.60677778  0.51481423    -0.58000
O129        O  0.86900834  0.55742140  0.51905161    -0.51000
C130        C  0.88443786  0.59584873  0.51987499     0.72400
O131        O  0.06050954  0.60762592  0.49460450    -0.72500
O132        O  0.11123038  0.55770543  0.48767751    -0.53100
C133        C  0.09892238  0.59640549  0.48936314     0.78400
O134        O  0.91052305  0.48258222  0.39035476    -0.57700
O135        O  0.86132236  0.48167362  0.44438404    -0.50800
C136        C  0.87244392  0.48021137  0.40462474     0.75000
Zr137      Zr  0.98140048  0.48780754  0.41592225     2.54700
O138        O  0.97111117  0.54164419  0.36298918    -0.78200
O139        O  0.98426252  0.42911039  0.36559820    -0.91600
Zr140      Zr  0.99071105  0.57558811  0.50178265     2.64700
O141        O  0.98285254  0.62176570  0.44146026    -0.96600
O142        O  0.99986789  0.63365819  0.55231025    -0.78700
O143        O  0.02844286  0.53206348  0.45462883    -0.82000
O144        O  0.94301463  0.53219840  0.46225535    -2.16700
O145        O  0.91368822  0.37800559  0.48482273    -0.65400
O146        O  0.86852127  0.41853328  0.52195383    -0.50000
C147        C  0.88065199  0.38233699  0.50808564     0.73400
O148        O  0.06322130  0.46069723  0.60426078    -0.58300
O149        O  0.11160528  0.49327365  0.56232469    -0.50300
C150        C  0.09904694  0.47998035  0.59913949     0.75200
O151        O  0.92967484  0.48136490  0.62635101    -0.69700
O152        O  0.87229160  0.48573486  0.58329512    -0.48400
C153        C  0.88971189  0.48128106  0.61989822     0.76500
O154        O  0.05304920  0.36983192  0.49443529    -0.65000
O155        O  0.10785129  0.41895691  0.49192863    -0.52200
C156        C  0.09254247  0.38040055  0.49154948     0.74900
Zr157      Zr  0.98508549  0.40163236  0.50260553     2.77500
O158        O  0.97742893  0.35978773  0.56660249    -0.95800
O159        O  0.98419534  0.33570691  0.46222991    -0.76600
Zr160      Zr  0.99583532  0.49058451  0.58882395     2.70100
O161        O  0.99211522  0.46206955  0.65993516    -0.77900
O162        O  0.01278698  0.55527823  0.62832253    -0.96900
Zr163      Zr  0.07337423  0.48839046  0.49437947     2.21500
Zr164      Zr  0.90292930  0.48844913  0.51077752     2.11100
O165        O  0.94851775  0.44509756  0.55087216    -2.45600
O166        O  0.03270206  0.44481190  0.54242559    -0.77700
O167        O  0.94095579  0.44432369  0.46235783    -0.69900
O168        O  0.03607839  0.53422927  0.54230384    -2.30800
O169        O  0.02568089  0.44356108  0.45426302    -2.27000
O170        O  0.95065867  0.53364728  0.55032896    -0.71600
H171        H  0.92432849  0.54947055  0.44625937     0.80400
H172        H  0.05572688  0.55224512  0.55799379     0.81500
H173        H  0.93254919  0.42698151  0.57001756     0.83700
H174        H  0.04115163  0.42592375  0.43468270     0.81300
H175        H  0.98656639  0.62306709  0.57884374     0.44300
H176        H  0.98729449  0.55988134  0.64623590     0.43300
H177        H  0.99277061  0.43107819  0.65567421     0.43000
H178        H  0.96515425  0.33228905  0.55678549     0.40900
H179        H  0.97434147  0.34342204  0.43377619     0.44100
H180        H  0.97470935  0.44088536  0.33855757     0.38800
H181        H  0.97292917  0.52642027  0.33549889     0.45000
H182        H  0.98504940  0.65067265  0.45365598     0.41400
H183        H  0.00689899  0.35368821  0.57454424     0.46300
H184        H  0.96082207  0.40949364  0.37448253     0.45000
H185        H  0.00934135  0.61881254  0.42463109     0.45100
H186        H  0.03489236  0.54723720  0.64846176     0.45500
N187        N  0.55205364  0.81224359  0.20235900    -0.01500
C188        C  0.57064961  0.81977096  0.24090176     0.01000
C189        C  0.59905842  0.78872498  0.24974346    -0.21800
C190        C  0.59697747  0.76013619  0.21736466    -0.22000
C191        C  0.56746007  0.77423937  0.18946940     0.00900
H192        H  0.61566542  0.78436566  0.27908273     0.14700
H193        H  0.61181441  0.72977568  0.21656660     0.14800
N194        N  0.54615049  0.22504009  0.19733967    -0.01500
C195        C  0.55553905  0.21296513  0.23738046     0.01000
C196        C  0.57830570  0.24406305  0.25870941    -0.21800
C197        C  0.58272307  0.27719071  0.23203616    -0.22000
C198        C  0.56260952  0.26563376  0.19466229     0.00900
H199        H  0.58722375  0.24402246  0.29170817     0.14700
H200        H  0.59508450  0.30818615  0.24112167     0.14800
N201        N  0.45959968  0.21012115  0.78302925    -0.01500
C202        C  0.43980337  0.24631561  0.79475743     0.01000
C203        C  0.41149217  0.25835275  0.76470786    -0.21800
C204        C  0.41383747  0.22981619  0.73249506    -0.22000
C205        C  0.44355750  0.20085909  0.74364905     0.00900
H206        H  0.39411014  0.28727999  0.76450270     0.14700
H207        H  0.39867831  0.23250437  0.70211447     0.14800
N208        N  0.46370681  0.80043714  0.78906222    -0.01500
C209        C  0.44222680  0.76222472  0.79247931     0.01000
C210        C  0.41982385  0.75294782  0.75591941    -0.21800
C211        C  0.42873609  0.78459910  0.72835173    -0.22000
C212        C  0.45627721  0.81260183  0.74850501     0.00900
H213        H  0.40333743  0.72353758  0.74777224     0.14700
H214        H  0.41979563  0.78492360  0.69536450     0.14800
N215        N  0.52236615  0.01594333  0.05733580    -0.34700
N216        N  0.50856182  0.94637800  0.99538373    -0.55200
N217        N  0.49947085  0.00916283  0.92749548    -0.34700
N218        N  0.50898949  0.07852827  0.99029753    -0.55200
C219        C  0.52134004  0.98227529  0.08386727     0.28900
C220        C  0.52078390  0.05190183  0.08138357     0.28900
C221        C  0.48982874  0.97285105  0.90560735     0.28900
C222        C  0.48940647  0.04246161  0.90299512     0.28900
C223        C  0.51937386  0.92323622  0.02945364     0.37500
C224        C  0.50711434  0.91972408  0.96125079     0.37500
C225        C  0.51720914  0.10566794  0.02314484     0.37500
C226        C  0.50532075  0.10212992  0.95485109     0.37500
C227        C  0.51948203  0.99730547  0.12527182    -0.20000
C228        C  0.51960375  0.04074962  0.12373876    -0.20000
C229        C  0.47395038  0.98332084  0.86649528    -0.20000
C230        C  0.47399428  0.02676567  0.86470647    -0.20000
C231        C  0.52484436  0.88171641  0.01660245    -0.21000
C232        C  0.51688463  0.87947655  0.97386384    -0.21000
C233        C  0.51821007  0.14672384  0.00840452    -0.21000
C234        C  0.51064750  0.14452243  0.96560906    -0.21000
C235        C  0.52316716  0.93835195  0.07229674    -0.16400
C236        C  0.52153688  0.09463810  0.06671332    -0.16400
C237        C  0.49468298  0.08662210  0.91335329    -0.16400
C238        C  0.49594884  0.93040429  0.91897863    -0.16400
H239        H  0.51818235  0.97895213  0.15394410     0.16500
H240        H  0.51880200  0.06162681  0.15105509     0.16500
H241        H  0.46353656  0.96188073  0.84151068     0.16500
H242        H  0.46387484  0.04455238  0.83783887     0.16500
H243        H  0.53371588  0.85552452  0.03591888     0.14800
H244        H  0.51833381  0.85129792  0.95426931     0.14800
H245        H  0.52307279  0.17553810  0.02666508     0.14800
H246        H  0.50854352  0.17139413  0.94503209     0.14800
H247        H  0.52730788  0.01460665  0.02491780     0.28100
H248        H  0.51514615  0.01107715  0.95607182     0.28100
N249        N  0.22419635  0.77545832  0.48436967    -0.01500
C250        C  0.22037941  0.73366741  0.47241318     0.01000
C251        C  0.25974325  0.71577675  0.46893893    -0.21800
C252        C  0.28904158  0.74626144  0.47904112    -0.22000
C253        C  0.26711712  0.78216088  0.48871431     0.00900
H254        H  0.26637382  0.68307535  0.46202932     0.14700
H255        H  0.32310862  0.74266921  0.47964536     0.14800
N256        N  0.81055837  0.18396211  0.53765661    -0.01500
C257        C  0.77292152  0.16828213  0.55378440     0.01000
C258        C  0.76525866  0.18530386  0.59356602    -0.21800
C259        C  0.79429445  0.21755884  0.59901785    -0.22000
C260        C  0.82004104  0.21800714  0.56319750     0.00900
H261        H  0.73630835  0.18128401  0.61212794     0.14700
H262        H  0.79149732  0.24226623  0.62271578     0.14800
N263        N  0.21468953  0.20541885  0.46258240    -0.01500
C264        C  0.25496412  0.20450308  0.44579001     0.01000
C265        C  0.26758879  0.24334779  0.42980315    -0.21800
C266        C  0.23525292  0.26975681  0.43734542    -0.22000
C267        C  0.20354408  0.24653085  0.45763988     0.00900
H268        H  0.29867598  0.25253709  0.41739991     0.14700
H269        H  0.23557425  0.30323574  0.43082940     0.14800
N270        N  0.79406810  0.78510792  0.53798852    -0.01500
C271        C  0.79614936  0.74691814  0.55760437     0.01000
C272        C  0.75913318  0.73743803  0.57986829    -0.21800
C273        C  0.73261333  0.76957825  0.57347599    -0.22000
C274        C  0.75385607  0.79790353  0.54729133     0.00900
H275        H  0.75066997  0.70817798  0.59566905     0.14700
H276        H  0.69970819  0.77046459  0.58369413     0.14800
N277        N  0.01577938  0.91647721  0.49851874    -0.34700
N278        N  0.08381211  0.98343947  0.49575399    -0.55200
N279        N  0.01801762  0.04845129  0.50114471    -0.34700
N280        N  0.95005526  0.98167415  0.50029126    -0.55200
C281        C  0.05047897  0.89170015  0.49675377     0.28900
C282        C  0.98002149  0.89100939  0.50073525     0.28900
C283        C  0.05302730  0.07374003  0.49369832     0.28900
C284        C  0.98312510  0.07251326  0.49781789     0.28900
C285        C  0.10884673  0.94905132  0.49495538     0.37500
C286        C  0.10975018  0.01874201  0.49476346     0.37500
C287        C  0.92401615  0.94688578  0.50466557     0.37500
C288        C  0.92545502  0.01601112  0.50479371     0.37500
C289        C  0.03622889  0.84977819  0.49775904    -0.20000
C290        C  0.99236914  0.84936659  0.49995629    -0.20000
C291        C  0.03983251  0.11436896  0.48604801    -0.20000
C292        C  0.99619901  0.11363317  0.48902207    -0.20000
C293        C  0.15107589  0.96292608  0.49324883    -0.21000
C294        C  0.15163232  0.00650495  0.49352611    -0.21000
C295        C  0.88263811  0.95958489  0.51140699    -0.21000
C296        C  0.88355740  0.00292893  0.51127688    -0.21000
C297        C  0.09469480  0.90527475  0.49489764    -0.16400
C298        C  0.93648863  0.90373746  0.50412191    -0.16400
C299        C  0.93963654  0.05919873  0.50319753    -0.16400
C300        C  0.09665792  0.06187603  0.49320660    -0.16400
H301        H  0.05533713  0.82200540  0.49730956     0.16500
H302        H  0.97193236  0.82129801  0.50108144     0.16500
H303        H  0.05945620  0.14194914  0.47849644     0.16500
H304        H  0.97628646  0.14037561  0.48444195     0.16500
H305        H  0.17887753  0.94376214  0.49161196     0.14800
H306        H  0.17987726  0.02681764  0.49235509     0.14800
H307        H  0.85448047  0.93986648  0.51676923     0.14800
H308        H  0.85636011  0.02256444  0.51595485     0.14800
H309        H  0.01643391  0.94900671  0.49833977     0.28100
H310        H  0.01803379  0.01749296  0.51119817     0.28100
O311        O  0.39339881  0.93984368  0.49816154    -0.73400
O312        O  0.44268416  0.88831226  0.50000518    -0.52300
C313        C  0.40399440  0.90128113  0.49852699     0.80400
O314        O  0.51376226  0.06541287  0.36763805    -0.58000
O315        O  0.51492743  0.12333319  0.41176749    -0.51000
C316        C  0.51626149  0.10532455  0.37470986     0.72400
O317        O  0.48297371  0.92757197  0.39068189    -0.72500
O318        O  0.52116242  0.88664782  0.43235062    -0.53100
C319        C  0.50702969  0.89647040  0.39554980     0.78400
O320        O  0.39306070  0.07627062  0.49373729    -0.57700
O321        O  0.44220534  0.12785929  0.47569356    -0.50800
C322        C  0.40368063  0.11379832  0.48239737     0.75000
Zr323      Zr  0.42555991  0.00897761  0.49811258     2.54700
O324        O  0.37139911  0.00502418  0.44372763    -0.78200
O325        O  0.37541096  0.00982962  0.55739077    -0.91600
Zr326      Zr  0.50632265  0.99956557  0.40472100     2.64700
O327        O  0.45409304  0.99781815  0.34835046    -0.96600
O328        O  0.56161077  0.98146484  0.35376793    -0.78700
O329        O  0.46555538  0.96243676  0.45607263    -0.82000
O330        O  0.46531376  0.04620773  0.44619744    -2.16700
O331        O  0.53132202  0.09121572  0.60205323    -0.65400
O332        O  0.49849002  0.13096417  0.55366637    -0.50000
C333        C  0.50995632  0.12298409  0.59209318     0.73400
O334        O  0.63248616  0.94732506  0.49799604    -0.58300
O335        O  0.58316357  0.89347575  0.50657750    -0.50300
C336        C  0.62195360  0.90865285  0.50506870     0.75200
O337        O  0.61518835  0.08106215  0.45131718    -0.69700
O338        O  0.58122971  0.13176853  0.48586278    -0.48400
C339        C  0.61610235  0.11549891  0.47257437     0.76500
O340        O  0.51413086  0.95668438  0.61817695    -0.65000
O341        O  0.51011704  0.89891515  0.57426160    -0.52200
C342        C  0.51017039  0.91689113  0.61156428     0.74900
Zr343      Zr  0.51996207  0.01994921  0.57780855     2.77500
O344        O  0.58277805  0.01785100  0.62185342    -0.95800
O345        O  0.46960438  0.03270783  0.63527535    -0.76600
Zr346      Zr  0.60028130  0.01336152  0.48369987     2.70100
O347        O  0.65366003  0.03725045  0.53448473    -0.77900
O348        O  0.65491009  0.99954257  0.43033641    -0.96900
Zr349      Zr  0.51302865  0.92593400  0.50033778     2.21500
Zr350      Zr  0.51132778  0.09480052  0.48404027     2.11100
O351        O  0.56054200  0.05882682  0.52766535    -2.45600
O352        O  0.56062280  0.97462772  0.53523542    -0.77700
O353        O  0.47114401  0.05594695  0.53573089    -0.69900
O354        O  0.55455683  0.96457069  0.44826450    -2.30800
O355        O  0.47163069  0.97297873  0.54274039    -2.27000
O356        O  0.55194010  0.04791291  0.44058533    -0.71600
H357        H  0.44674241  0.06082941  0.42767125     0.80400
H358        H  0.57208986  0.94627843  0.43143119     0.81500
H359        H  0.57973177  0.07821853  0.54222327     0.83700
H360        H  0.45414215  0.95756658  0.56297058     0.81300
H361        H  0.58634475  0.99974698  0.36176427     0.44300
H362        H  0.64750961  0.97117459  0.41863763     0.43300
H363        H  0.67903751  0.02089608  0.52717584     0.43000
H364        H  0.59656727  0.99129096  0.61357490     0.40900
H365        H  0.44199779  0.02174365  0.62443047     0.44100
H366        H  0.34767687  0.01505990  0.54431488     0.38800
H367        H  0.38735277  0.00003885  0.41702135     0.45000
H368        H  0.44263249  0.02652877  0.34772838     0.41400
H369        H  0.60214864  0.04040626  0.61071959     0.46300
H370        H  0.38260557  0.03628857  0.57306272     0.45000
H371        H  0.47109315  0.99539339  0.32189958     0.45100
H372        H  0.64920933  0.01895536  0.40690174     0.45500
C373        C  0.72955241  0.87130286  0.54020315     0.25500
C374        C  0.72880485  0.82952584  0.52542192    -0.22600
C375        C  0.69368614  0.81453941  0.50152150     0.20400
C376        C  0.65853089  0.83970431  0.49550569     0.25500
C377        C  0.65834767  0.88093713  0.51199921    -0.22500
C378        C  0.69495295  0.89698048  0.53315700     0.20400
F379        F  0.69624928  0.93686427  0.54939462    -0.12500
F380        F  0.76212578  0.88609095  0.56453202    -0.14800
F381        F  0.62452681  0.82355805  0.47403799    -0.14900
F382        F  0.69192301  0.77393996  0.48721323    -0.12500
C383        C  0.83358686  0.83508258  0.48908813     0.25500
C384        C  0.83073029  0.81264196  0.52734465    -0.22600
C385        C  0.86377053  0.81925362  0.55677437     0.20400
C386        C  0.89838758  0.84733704  0.54845664     0.25500
C387        C  0.90139480  0.86998530  0.51039518    -0.22500
C388        C  0.86853052  0.86316004  0.48060991     0.20400
F389        F  0.86962133  0.88479329  0.44376119    -0.12500
F390        F  0.80247654  0.82998313  0.45997722    -0.14800
F391        F  0.92834876  0.85371072  0.57858081    -0.14900
F392        F  0.86144527  0.80000100  0.59490648    -0.12500
C393        C  0.29759271  0.16401145  0.49632534     0.25500
C394        C  0.28794417  0.17366391  0.45429910    -0.22600
C395        C  0.31796813  0.16517113  0.42207639     0.20400
C396        C  0.35742196  0.14902165  0.43184304     0.25500
C397        C  0.36732769  0.14019168  0.47389888    -0.22500
C398        C  0.33678257  0.14693364  0.50593319     0.20400
F399        F  0.34532366  0.13743800  0.54669352    -0.12500
F400        F  0.27041487  0.17379177  0.52838181    -0.14800
F401        F  0.38552854  0.14085754  0.40006591    -0.14900
F402        F  0.30965832  0.17444180  0.38118284    -0.12500
C403        C  0.15399702  0.10057810  0.44947367     0.25500
C404        C  0.13022205  0.09727651  0.48743458    -0.22600
C405        C  0.13562657  0.13022411  0.51779696     0.20400
C406        C  0.16315529  0.16558786  0.50992766     0.25500
C407        C  0.18694366  0.16865958  0.47195239    -0.22500
C408        C  0.18234054  0.13521734  0.44216667     0.20400
F409        F  0.20402913  0.13696366  0.40481876    -0.12500
F410        F  0.14844510  0.07091532  0.41850905    -0.14800
F411        F  0.16680325  0.19669145  0.53963799    -0.14900
F412        F  0.11320255  0.12873098  0.55474651    -0.12500
C413        C  0.66169075  0.17195628  0.50820251     0.25500
C414        C  0.65845391  0.13352590  0.48574783    -0.22600
C415        C  0.69559035  0.10958527  0.48094398     0.20400
C416        C  0.73321608  0.12144234  0.50183234     0.25500
C417        C  0.73540319  0.15827482  0.52657956    -0.22500
C418        C  0.69976697  0.18451589  0.52774637     0.20400
F419        F  0.70117501  0.22198957  0.54908179    -0.12500
F420        F  0.62762726  0.19692677  0.51254853    -0.14800
F421        F  0.76652136  0.09534850  0.50003441    -0.14900
F422        F  0.69515222  0.07302800  0.45824801    -0.12500
C423        C  0.88182300  0.10814792  0.47767915     0.25500
C424        C  0.90711362  0.09286981  0.51047113    -0.22600
C425        C  0.90072684  0.10894172  0.55157578     0.20400
C426        C  0.86972376  0.13888498  0.56013155     0.25500
C427        C  0.84410107  0.15439182  0.52763114    -0.22500
C428        C  0.85072077  0.13863982  0.48617644     0.20400
F429        F  0.82658453  0.15223906  0.45409204    -0.12500
F430        F  0.88706817  0.09334409  0.43752515    -0.14800
F431        F  0.86410559  0.15205866  0.60077599    -0.14900
F432        F  0.92424902  0.09486359  0.58392416    -0.12500
C433        C  0.36010950  0.84235553  0.52976656     0.25500
C434        C  0.36728946  0.87129925  0.49719138    -0.22600
C435        C  0.33490024  0.87719353  0.46742637     0.20400
C436        C  0.29750482  0.85206514  0.46830364     0.25500
C437        C  0.29164489  0.82113033  0.49929819    -0.22500
C438        C  0.32214054  0.81828258  0.53141558     0.20400
F439        F  0.31661467  0.78915963  0.56234607    -0.12500
F440        F  0.38974580  0.83750969  0.56001868    -0.14800
F441        F  0.26877097  0.85552858  0.43693300    -0.14900
F442        F  0.34027097  0.90634545  0.43647042    -0.12500
C443        C  0.16192352  0.81204221  0.45488235     0.25500
C444        C  0.19096006  0.80672533  0.48791603    -0.22600
C445        C  0.18792578  0.83387902  0.52350545     0.20400
C446        C  0.15677290  0.86515538  0.52604587     0.25500
C447        C  0.12826211  0.87122124  0.49254362    -0.22500
C448        C  0.13170336  0.84418657  0.45679379     0.20400
F449        F  0.10593591  0.84924536  0.42323797    -0.12500
F450        F  0.16371268  0.78686401  0.41989935    -0.14800
F451        F  0.15444286  0.88960952  0.56150258    -0.14900
F452        F  0.21460802  0.82947559  0.55644612    -0.12500
C453        C  0.47102160  0.88489563  0.72151879     0.25500
C454        C  0.48185387  0.84256481  0.72250773    -0.22600
C455        C  0.50689023  0.82603872  0.68923354     0.20400
C456        C  0.51693552  0.85012708  0.65336171     0.25500
C457        C  0.50319435  0.89161749  0.65065295    -0.22500
C458        C  0.48203315  0.90946781  0.68627906     0.20400
F459        F  0.46903986  0.94991301  0.68595291    -0.12500
F460        F  0.44646805  0.90133365  0.75287419    -0.14800
F461        F  0.53907968  0.83252489  0.62090870    -0.14900
F462        F  0.51830220  0.78508990  0.68989306    -0.12500
C463        C  0.51126777  0.85628962  0.82242121     0.25500
C464        C  0.47458214  0.82953483  0.82400712    -0.22600
C465        C  0.44594082  0.83531951  0.85833345     0.20400
C466        C  0.45315278  0.86738770  0.88910957     0.25500
C467        C  0.48919553  0.89479670  0.88675872    -0.22500
C468        C  0.51829256  0.88855006  0.85312130     0.20400
F469        F  0.55352856  0.91410861  0.84977450    -0.12500
F470        F  0.54058092  0.85114759  0.79114903    -0.14800
F471        F  0.42402044  0.87261718  0.92061589    -0.14900
F472        F  0.40969007  0.81115823  0.86111844    -0.12500
C473        C  0.50629222  0.17893455  0.69902533     0.25500
C474        C  0.46277045  0.17459715  0.70939239    -0.22600
C475        C  0.43541712  0.15495692  0.67952323     0.20400
C476        C  0.45058358  0.14192949  0.63978221     0.25500
C477        C  0.49373886  0.14715084  0.62894979    -0.22500
C478        C  0.52172615  0.16452528  0.65952308     0.20400
F479        F  0.56401789  0.16786543  0.65087806    -0.12500
F480        F  0.53346640  0.19922852  0.72596126    -0.14800
F481        F  0.42325560  0.12234075  0.61241691    -0.14900
F482        F  0.39327634  0.14982067  0.68837420    -0.12500
C483        C  0.51099420  0.17414751  0.82962402     0.25500
C484        C  0.46965723  0.17817234  0.81394508    -0.22600
C485        C  0.43677094  0.15261668  0.83180140     0.20400
C486        C  0.44481896  0.12381785  0.86416647     0.25500
C487        C  0.48629758  0.11863866  0.87907704    -0.22500
C488        C  0.51929382  0.14450284  0.86150205     0.20400
F489        F  0.55952081  0.14160960  0.87586725    -0.12500
F490        F  0.54323434  0.19926889  0.81451107    -0.14800
F491        F  0.41179630  0.10114671  0.88141367    -0.14900
F492        F  0.39631097  0.15642948  0.81844025    -0.12500
C493        C  0.50311969  0.18826209  0.29077608     0.25500
C494        C  0.53581320  0.17814262  0.26182875    -0.22600
C495        C  0.55963085  0.14241373  0.26891385     0.20400
C496        C  0.55289793  0.11885308  0.30568195     0.25500
C497        C  0.52248898  0.13095575  0.33628928    -0.22500
C498        C  0.49675836  0.16508079  0.32796164     0.20400
F499        F  0.46606823  0.17635747  0.35605442    -0.12500
F500        F  0.48018639  0.22324892  0.28494383    -0.14800
F501        F  0.57805453  0.08568134  0.31274687    -0.14900
F502        F  0.59204889  0.13269079  0.24217983    -0.12500
C503        C  0.57124453  0.18525179  0.13384208     0.25500
C504        C  0.53818146  0.19539469  0.16236682    -0.22600
C505        C  0.49932100  0.17237334  0.15895451     0.20400
C506        C  0.49341854  0.14079582  0.12732941     0.25500
C507        C  0.52677550  0.13017781  0.09925784    -0.22500
C508        C  0.56571178  0.15304200  0.10294377     0.20400
F509        F  0.59886423  0.14344385  0.07709987    -0.12500
F510        F  0.60981426  0.20520790  0.13736339    -0.14800
F511        F  0.45525311  0.11990341  0.12460145    -0.14900
F512        F  0.46714735  0.18023630  0.18658300    -0.12500
C513        C  0.50970856  0.84772616  0.28445915     0.25500
C514        C  0.55369444  0.84611770  0.27643986    -0.22600
C515        C  0.58167783  0.86110204  0.30822593     0.20400
C516        C  0.56630748  0.87440669  0.34784789     0.25500
C517        C  0.52243693  0.87532196  0.35620414    -0.22500
C518        C  0.49428628  0.86342615  0.32343560     0.20400
F519        F  0.45171931  0.86596338  0.32959327    -0.12500
F520        F  0.48164619  0.83175853  0.25571242    -0.14800
F521        F  0.59451344  0.88785805  0.37763244    -0.14900
F522        F  0.62433864  0.86175334  0.30128460    -0.12500
C523        C  0.57194021  0.87928383  0.16520093     0.25500
C524        C  0.54247693  0.84544869  0.17243801    -0.22600
C525        C  0.50606636  0.84288565  0.14693462     0.20400
C526        C  0.49929226  0.87320192  0.11532154     0.25500
C527        C  0.52938359  0.90636086  0.10732262    -0.22500
C528        C  0.56574361  0.90883658  0.13299689     0.20400
F529        F  0.59592207  0.93968232  0.12640354    -0.12500
F530        F  0.60791026  0.88290887  0.18835440    -0.14800
F531        F  0.46324923  0.87001115  0.09224614    -0.14900
F532        F  0.47687370  0.81104500  0.15272473    -0.12500
C533        C  0.84512201  0.31226290  0.49246781     0.25500
C534        C  0.85923831  0.34279446  0.52218213    -0.22600
C535        C  0.86324482  0.33110464  0.56460454     0.20400
C536        C  0.85418886  0.28952245  0.57702008     0.25500
C537        C  0.83866938  0.25898286  0.54770357    -0.22500
C538        C  0.83443071  0.27089431  0.50511025     0.20400
F539        F  0.81902291  0.24295978  0.47578745    -0.12500
F540        F  0.84167831  0.32263976  0.45110571    -0.14800
F541        F  0.86118474  0.27900172  0.61783914    -0.14900
F542        F  0.87830290  0.35948987  0.59372855    -0.12500
C543        C  0.83294316  0.70004633  0.50532603     0.25500
C544        C  0.82555908  0.71249201  0.54758998    -0.22600
C545        C  0.83603262  0.68481631  0.58020553     0.20400
C546        C  0.85145108  0.64485206  0.57082427     0.25500
C547        C  0.85729127  0.63179941  0.52865774    -0.21600
C548        C  0.84910783  0.66016124  0.49602029     0.20400
F549        F  0.85747507  0.64931014  0.45511733    -0.12500
F550        F  0.82273986  0.72556801  0.47303257    -0.14800
F551        F  0.86227220  0.61941895  0.60300962    -0.14900
F552        F  0.83015915  0.69624762  0.62139073    -0.12500
C553        C  0.11229220  0.31624232  0.45098068     0.25500
C554        C  0.12047148  0.34406333  0.48522654    -0.22600
C555        C  0.15029588  0.33293117  0.51547703     0.20400
C556        C  0.17313743  0.29574598  0.51011416     0.25500
C557        C  0.16661401  0.26913914  0.47442334    -0.22500
C558        C  0.13522765  0.27940797  0.44552272     0.20400
F559        F  0.12999301  0.25607495  0.40952783    -0.12500
F560        F  0.08328714  0.32598000  0.42147221    -0.14800
F561        F  0.20469332  0.28776084  0.53753907    -0.14900
F562        F  0.15774186  0.35822938  0.54974599    -0.12500
C563        C  0.15377481  0.63665455  0.44719995     0.25500
C564        C  0.12990326  0.63199354  0.48461789    -0.22600
C565        C  0.13064203  0.66514419  0.51482751     0.20400
C566        C  0.15696793  0.70116497  0.50897629     0.25500
C567        C  0.18217609  0.70519986  0.47225228    -0.22500
C568        C  0.17951598  0.67292557  0.44098053     0.20400
F569        F  0.20406399  0.67544441  0.40537481    -0.12500
F570        F  0.15165005  0.60640856  0.41640173    -0.14800
F571        F  0.16046514  0.73024574  0.54073658    -0.14900
F572        F  0.10677840  0.66191511  0.55080191    -0.12500
C573        C  0.85254976  0.43569924  0.72432508     0.25500
C574        C  0.82072821  0.46324805  0.73672079    -0.22600
C575        C  0.81212799  0.49776910  0.71077084     0.20400
C576        C  0.83334025  0.50307501  0.67175688     0.25500
C577        C  0.86376548  0.47426422  0.65852533    -0.22500
C578        C  0.87410728  0.44126303  0.68581029     0.20400
F579        F  0.90400913  0.41323039  0.67430227    -0.12500
F580        F  0.86021895  0.40133670  0.74802987    -0.14800
F581        F  0.82424876  0.53620367  0.64695692    -0.14900
F582        F  0.78078092  0.52436683  0.72172877    -0.12500
C583        C  0.81877583  0.43497342  0.86316905     0.25500
C584        C  0.80685878  0.46838637  0.83717296    -0.22600
C585        C  0.82901049  0.50750140  0.84162093     0.20400
C586        C  0.86143860  0.51322681  0.87207490     0.25500
C587        C  0.87264599  0.47985417  0.89868614    -0.22500
C588        C  0.85100872  0.44062472  0.89342322     0.20400
F589        F  0.86180799  0.40731969  0.91720406    -0.12500
F590        F  0.80015936  0.39609072  0.85801538    -0.14800
F591        F  0.88216500  0.55131186  0.87536100    -0.14900
F592        F  0.81948567  0.54002221  0.81623037    -0.12500
C593        C  0.12598318  0.49852794  0.71556865     0.25500
C594        C  0.16264853  0.52474167  0.71257040    -0.22600
C595        C  0.18251567  0.52884174  0.67216096     0.20400
C596        C  0.16331259  0.51232756  0.63555632     0.25500
C597        C  0.12450611  0.48955945  0.63808298    -0.22500
C598        C  0.10763589  0.48058299  0.67899217     0.20400
F599        F  0.07238428  0.45544550  0.68401584    -0.12500
F600        F  0.10639258  0.49149873  0.75336394    -0.14800
F601        F  0.18250010  0.51964512  0.59751463    -0.14900
F602        F  0.22085944  0.54915392  0.66760822    -0.12500
C603        C  0.12761266  0.47728495  0.87650906     0.25500
C604        C  0.09576214  0.50638056  0.88640812    -0.22600
C605        C  0.09386333  0.54283019  0.86156993     0.20400
C606        C  0.12355583  0.55076652  0.82881959     0.25500
C607        C  0.15617488  0.52232564  0.81948854    -0.22500
C608        C  0.15773138  0.48541841  0.84374916     0.20400
F609        F  0.18864832  0.45744322  0.83592254    -0.12500
F610        F  0.12976366  0.44115000  0.89889231    -0.14800
F611        F  0.12119616  0.58718857  0.80692515    -0.14900
F612        F  0.06356616  0.57146300  0.86971725    -0.12500
C613        C  0.83259130  0.43020088  0.35891011     0.25500
C614        C  0.84141286  0.47232071  0.37072272    -0.22600
C615        C  0.83423707  0.50425017  0.34119121     0.20400
C616        C  0.81742760  0.49424414  0.30109238     0.25500
C617        C  0.80868267  0.45193392  0.28926933    -0.22500
C618        C  0.81689283  0.42008042  0.31864917     0.20400
F619        F  0.80905100  0.37884840  0.30842561    -0.12500
F620        F  0.84158341  0.39855698  0.38568625    -0.14800
F621        F  0.80822252  0.52596439  0.27454522    -0.14900
F622        F  0.84461917  0.54510418  0.35092045    -0.12500
C623        C  0.84761910  0.43725905  0.18012667     0.25500
C624        C  0.81690210  0.46836783  0.18659932    -0.22600
C625        C  0.82047349  0.50500583  0.16179104     0.20400
C626        C  0.85288790  0.50987656  0.13070359     0.25500
C627        C  0.88232758  0.47791032  0.12287988    -0.22500
C628        C  0.87960559  0.44184415  0.14861872     0.20400
F629        F  0.90712873  0.41020829  0.14221892    -0.12500
F630        F  0.84535402  0.40117545  0.20286860    -0.14800
F631        F  0.85496759  0.54558739  0.10738919    -0.14900
F632        F  0.79233118  0.53612398  0.16750698    -0.12500
C633        C  0.14872457  0.47783166  0.33900472     0.25500
C634        C  0.11406541  0.50357146  0.34671691    -0.22600
C635        C  0.10304386  0.53291225  0.31557551     0.20400
C636        C  0.12799272  0.53824185  0.27890316     0.25500
C637        C  0.16368766  0.51373366  0.27220679    -0.22500
C638        C  0.17303071  0.48259222  0.30188793     0.20400
F639        F  0.20814384  0.45923855  0.29650776    -0.12500
F640        F  0.15923787  0.44829598  0.36748936    -0.14800
F641        F  0.11954678  0.56981990  0.25185898    -0.14900
F642        F  0.06941652  0.55816339  0.32175289    -0.12500
C643        C  0.11778033  0.47301581  0.13891663     0.25500
C644        C  0.10720786  0.50535634  0.11081550    -0.22600
C645        C  0.13028177  0.54412965  0.11386789     0.20400
C646        C  0.16322288  0.55013068  0.14333696     0.25500
C647        C  0.17390637  0.51788672  0.17127952    -0.22500
C648        C  0.15046854  0.47931416  0.16894234     0.20400
F649        F  0.15948108  0.44758416  0.19551514    -0.12500
F650        F  0.09620656  0.43528432  0.13739412    -0.14800
F651        F  0.18362804  0.58837204  0.14581569    -0.14900
F652        F  0.12046424  0.57663487  0.08853971    -0.12500
C653        C  0.49244516  0.33908752  0.13483264     0.25500
C654        C  0.51907250  0.37559450  0.13167844    -0.22600
C655        C  0.56138508  0.37339777  0.14432069     0.20400
C656        C  0.57661438  0.33581772  0.16037994     0.25500
C657        C  0.54948559  0.29967222  0.16565964    -0.22500
C658        C  0.50726059  0.30173674  0.15207085     0.20400
F659        F  0.47971590  0.26833948  0.15683539    -0.12500
F660        F  0.45193095  0.33958758  0.12066550    -0.14800
F661        F  0.61814049  0.33497135  0.17134008    -0.14900
F662        F  0.58869470  0.40697810  0.13890911    -0.12500
C663        C  0.51153088  0.71876070  0.17316628     0.25500
C664        C  0.54749446  0.74313895  0.15985546    -0.22600
C665        C  0.57232148  0.72798064  0.12620924     0.20400
C666        C  0.56203564  0.68929870  0.10659488     0.25500
C667        C  0.52680966  0.66433747  0.12033392    -0.22500
C668        C  0.50109904  0.67972254  0.15336094     0.20400
F669        F  0.46603783  0.65716546  0.16626606    -0.12500
F670        F  0.48814776  0.73152246  0.20708838    -0.14800
F671        F  0.58735574  0.67548213  0.07453260    -0.14900
F672        F  0.60828572  0.74954923  0.11408555    -0.12500
C673        C  0.43335822  0.65555711  0.84460539     0.25500
C674        C  0.47589430  0.64739917  0.85296741    -0.22600
C675        C  0.50713301  0.67921859  0.84495592     0.20400
C676        C  0.49604624  0.71825546  0.82831398     0.25500
C677        C  0.45331461  0.72655376  0.82013766    -0.22500
C678        C  0.42211120  0.69471613  0.82891612     0.20400
F679        F  0.38045006  0.70133509  0.82161723    -0.12500
F680        F  0.40229547  0.62628093  0.85386270    -0.14800
F681        F  0.52728446  0.74712608  0.81857195    -0.14900
F682        F  0.54847774  0.67242290  0.85349362    -0.12500
C683        C  0.69531275  0.50489064  0.83926988     0.25500
C684        C  0.70136541  0.46108767  0.83764921    -0.22600
C685        C  0.66748792  0.43374281  0.85047984     0.20400
C686        C  0.62768638  0.44943198  0.86111741     0.25500
C687        C  0.62130250  0.49302639  0.86166562    -0.22500
C688        C  0.65588279  0.52070019  0.85200249     0.20400
F689        F  0.65096528  0.56309898  0.85345111    -0.12500
F690        F  0.72640379  0.53227109  0.82567636    -0.14800
F691        F  0.59556348  0.42190787  0.87190413    -0.14900
F692        F  0.67233279  0.39129978  0.85026110    -0.12500
C693        C  0.42976895  0.32647494  0.88119664     0.25500
C694        C  0.45956325  0.35801381  0.86793948    -0.22600
C695        C  0.48781010  0.34846266  0.83465943     0.20400
C696        C  0.48509263  0.30885549  0.81407482     0.25500
C697        C  0.45419046  0.27811444  0.82642323    -0.22500
C698        C  0.42696190  0.28720399  0.86049606     0.20400
F699        F  0.39565169  0.25897502  0.87185460    -0.12500
F700        F  0.40233504  0.33423742  0.91367286    -0.14800
F701        F  0.51050810  0.30156212  0.77990596    -0.14900
F702        F  0.51815308  0.37724050  0.82229600    -0.12500
C703        C  0.27093201  0.57258087  0.86272086     0.25500
C704        C  0.25666481  0.54478895  0.83069135    -0.22600
C705        C  0.28127229  0.50976307  0.81994601     0.20400
C706        C  0.31939844  0.50262816  0.84116873     0.25500
C707        C  0.33322720  0.53017836  0.87377842    -0.22500
C708        C  0.30839163  0.56513896  0.88434876     0.20400
F709        F  0.32130059  0.59318624  0.91475984    -0.12500
F710        F  0.24927347  0.60798018  0.87195371    -0.14800
F711        F  0.34258379  0.46877999  0.83004107    -0.14900
F712        F  0.26969206  0.48393804  0.78719311    -0.12500
C713        C  0.33258170  0.57303012  0.12310573     0.25500
C714        C  0.35934600  0.53844727  0.12686306    -0.22600
C715        C  0.34280616  0.50140683  0.14583033     0.20400
C716        C  0.30127106  0.49997421  0.16273798     0.25500
C717        C  0.27580516  0.53572996  0.16164135    -0.22500
C718        C  0.29150123  0.57170428  0.14044275     0.20400
F719        F  0.26872224  0.60735179  0.14058485    -0.12500
F720        F  0.34709194  0.60931873  0.10473721    -0.14800
F721        F  0.28746901  0.46518223  0.18420312    -0.14900
F722        F  0.36692059  0.46680628  0.14845119    -0.12500
C723        C  0.69259496  0.50880585  0.17654275     0.25500
C724        C  0.71732040  0.47385572  0.16565035    -0.22600
C725        C  0.70801043  0.45126793  0.12834919     0.20400
C726        C  0.67392486  0.46241083  0.10310865     0.25500
C727        C  0.64779184  0.49612528  0.11495625    -0.22500
C728        C  0.65802000  0.51974196  0.15157473     0.20400
F729        F  0.63391283  0.55256728  0.16384631    -0.12500
F730        F  0.69965733  0.52995461  0.21356446    -0.14800
F731        F  0.66426285  0.43782953  0.06883689    -0.14900
F732        F  0.72947224  0.41591637  0.11847248    -0.12500
loop_ 
_geom_bond_atom_site_label_1 
_geom_bond_atom_site_label_2 
_geom_bond_distance 
_geom_bond_site_symmetry_2 
_ccdc_geom_bond_type 
O1          Zr13   2.388   1_554  S
O1            C3   1.277       .  A
O2          Zr39   2.484       .  S
O2            C3   1.299       .  A
C3          C654   1.477       .  S
O4          Zr16   2.412       .  S
O4            C6   1.272       .  A
O5          Zr40   2.468       .  S
O5            C6   1.289       .  A
C6          C687   1.480       .  S
O7          Zr16   2.429   1_554  S
O7            C9   1.286       .  A
O8          Zr39   2.470       .  S
O8            C9   1.297       .  A
C9          C727   1.491       .  S
O10         Zr13   2.393       .  S
O10          C12   1.278       .  A
O11         Zr40   2.494       .  S
O11          C12   1.301       .  A
C12         C694   1.486       .  S
Zr13         O14   2.436       .  S
Zr13         O15   2.437   1_556  S
Zr13         O19   2.364   1_556  S
Zr13         O20   2.364       .  S
Zr13         O43   2.365       .  S
Zr13         O45   2.363   1_556  S
O14          H57   0.990       .  S
O15          H56   0.990       .  S
O15          H60   0.990       .  S
Zr16         O17   2.437       .  S
Zr16         O18   2.437       .  S
Zr16         O20   2.377       .  S
Zr16         O19   2.356   1_556  S
Zr16         O44   2.369   1_556  S
Zr16         O46   2.373       .  S
O17          H58   0.989       .  S
O17          H61   0.990       .  S
O18          H51   0.990       .  S
O19         Zr39   2.384       .  S
O20         Zr40   2.407       .  S
O20          H47   0.965       .  S
O21         Zr33   2.433   1_556  S
O21          C23   1.285       .  A
O22         Zr40   2.467       .  S
O22          C23   1.295       .  A
C23         C707   1.488       .  S
O24         Zr36   2.399   1_554  S
O24          C26   1.280       .  A
O25         Zr39   2.489       .  S
O25          C26   1.300       .  A
C26         C667   1.483       .  S
O27         Zr36   2.402       .  S
O27          C29   1.280       .  A
O28         Zr40   2.479       .  S
O28          C29   1.298       .  A
C29         C674   1.475       .  S
O30         Zr33   2.402       .  S
O30          C32   1.272       .  A
O31         Zr39   2.474       .  S
O31          C32   1.290       .  A
C32         C714   1.487       .  S
Zr33         O34   2.440       .  S
Zr33         O35   2.437       .  S
Zr33         O41   2.369   1_554  S
Zr33         O42   2.379       .  S
Zr33         O45   2.378       .  S
Zr33         O43   2.366   1_554  S
O34          H54   0.990       .  S
O34          H59   0.990       .  S
O35          H55   0.990       .  S
Zr36         O37   2.435       .  S
Zr36         O38   2.435       .  S
Zr36         O42   2.351   1_556  S
Zr36         O41   2.373       .  S
Zr36         O46   2.348       .  S
Zr36         O44   2.370   1_556  S
O37          H53   0.990   1_556  S
O38          H52   0.990       .  S
O38          H62   0.990       .  S
Zr39         O42   2.400       .  S
Zr39         O44   2.399       .  S
Zr39         O45   2.421       .  S
Zr40         O41   2.403       .  S
Zr40         O43   2.399       .  S
Zr40         O46   2.403       .  S
O41          H49   0.965       .  S
O44          H48   0.966       .  S
O45          H50   0.966       .  S
N63          C67   1.369       .  A
N63          C64   1.366       .  A
N63         C647   1.459       .  S
C64         C637   1.471       .  S
C64          C65   1.379       .  A
C65          C66   1.357       .  A
C65          H68   1.083       .  S
C66          C67   1.380       .  A
C66          H69   1.083       .  S
C67         C717   1.474       .  S
N70          C74   1.369       .  A
N70          C71   1.373       .  A
N70         C624   1.463       .  S
C71         C617   1.489       .  S
C71          C72   1.383       .  A
C72          C73   1.360       .  A
C72          H75   1.083       .  S
C73          C74   1.377       .  A
C73          H76   1.083       .  S
C74         C724   1.480       .  S
N77          C81   1.372       .  A
N77          C78   1.365       .  A
N77         C607   1.459       .  S
C78         C704   1.482       .  S
C78          C79   1.377       .  A
C79          C80   1.361       .  A
C79          H82   1.083       .  S
C80          C81   1.386       .  A
C80          H83   1.082       .  S
C81         C594   1.505       .  S
N84          C88   1.363       .  A
N84          C85   1.372       .  A
N84         C584   1.459       .  S
C85         C684   1.488       .  S
C85          C86   1.385       .  A
C86          C87   1.356       .  A
C86          H89   1.083       .  S
C87          C88   1.375       .  A
C87          H90   1.083       .  S
C88         C574   1.469       .  S
N91          C96   1.365       .  A
N91          C95   1.365   1_655  A
N91         H123   1.035       .  S
N92          C99   1.361       .  A
N92         C100   1.361   1_554  A
N93          C98   1.364       .  A
N93          C97   1.363   1_655  A
N93         H124   1.037       .  S
N94         C101   1.361       .  A
N94         C102   1.362   1_554  A
C95         C103   1.388       .  A
C95         C111   1.438       .  A
C96         C112   1.437       .  A
C96         C104   1.387       .  A
C97         C105   1.387       .  A
C97         C114   1.432       .  A
C98         C113   1.432       .  A
C98         C106   1.387       .  A
C99         C111   1.434       .  A
C99         C107   1.388       .  A
C100        C114   1.431       .  A
C100        C108   1.386       .  A
C101        C109   1.388       .  A
C101        C112   1.434       .  A
C102        C110   1.386       .  A
C102        C113   1.432       .  A
C103        C104   1.378   1_455  A
C103        H115   1.082       .  S
C104        H116   1.082       .  S
C105        C106   1.377   1_455  A
C105        H117   1.082       .  S
C106        H118   1.082       .  S
C107        C108   1.375   1_554  A
C107        H119   1.082       .  S
C108        H120   1.082       .  S
C109        C110   1.375   1_554  A
C109        H121   1.082       .  S
C110        H122   1.082       .  S
C111        C644   1.524       .  S
C112        C627   1.524       .  S
C113        C587   1.522       .  S
C114        C604   1.518       .  S
O125       Zr137   2.395   1_455  S
O125        C127   1.279       .  A
O126       Zr163   2.477       .  S
O126        C127   1.299       .  A
C127        C634   1.481       .  S
O128       Zr140   2.392       .  S
O128        C130   1.278       .  A
O129       Zr164   2.473       .  S
O129        C130   1.297       .  A
C130        C547   1.468       .  S
O131       Zr140   2.402   1_455  S
O131        C133   1.280       .  A
O132       Zr163   2.476       .  S
O132        C133   1.298       .  A
C133        C564   1.476       .  S
O134       Zr137   2.384       .  S
O134        C136   1.276       .  A
O135       Zr164   2.490       .  S
O135        C136   1.300       .  A
C136        C614   1.473       .  S
Zr137       O138   2.435       .  S
Zr137       O139   2.436       .  S
Zr137       O143   2.351   1_655  S
Zr137       O144   2.366       .  S
Zr137       O167   2.359       .  S
Zr137       O169   2.363   1_655  S
O138        H181   0.990       .  S
O139        H180   0.990       .  S
O139        H184   0.990       .  S
Zr140       O141   2.436       .  S
Zr140       O142   2.434       .  S
Zr140       O144   2.362       .  S
Zr140       O143   2.355   1_655  S
Zr140       O168   2.367   1_655  S
Zr140       O170   2.367       .  S
O141        H182   0.990       .  S
O141        H185   0.990   1_655  S
O142        H175   0.990       .  S
O143       Zr163   2.388       .  S
O144       Zr164   2.400       .  S
O144        H171   0.967       .  S
O145       Zr157   2.418       .  S
O145        C147   1.277       .  A
O146       Zr164   2.463       .  S
O146        C147   1.291       .  A
C147        C534   1.475       .  S
O148       Zr160   2.409   1_455  S
O148        C150   1.276       .  A
O149       Zr163   2.475       .  S
O149        C150   1.295       .  A
C150        C597   1.499       .  S
O151       Zr160   2.396       .  S
O151        C153   1.278       .  A
O152       Zr164   2.476       .  S
O152        C153   1.297       .  A
C153        C577   1.475       .  S
O154       Zr157   2.405   1_455  S
O154        C156   1.280       .  A
O155       Zr163   2.484       .  S
O155        C156   1.299       .  A
C156        C554   1.481       .  S
Zr157       O158   2.436       .  S
Zr157       O159   2.434       .  S
Zr157       O165   2.357       .  S
Zr157       O166   2.362   1_655  S
Zr157       O169   2.372   1_655  S
Zr157       O167   2.363       .  S
O158        H178   0.990       .  S
O158        H183   0.990   1_655  S
O159        H179   0.990       .  S
Zr160       O161   2.431       .  S
Zr160       O162   2.435   1_655  S
Zr160       O166   2.370   1_655  S
Zr160       O165   2.367       .  S
Zr160       O170   2.360       .  S
Zr160       O168   2.360   1_655  S
O161        H177   0.991       .  S
O162        H176   0.990   1_455  S
O162        H186   0.990       .  S
Zr163       O166   2.396       .  S
Zr163       O168   2.407       .  S
Zr163       O169   2.398       .  S
Zr164       O165   2.401       .  S
Zr164       O167   2.396       .  S
Zr164       O170   2.396       .  S
O165        H173   0.965       .  S
O168        H172   0.966       .  S
O169        H174   0.966       .  S
N187        C191   1.368       .  A
N187        C188   1.373       .  A
N187        C524   1.464       .  S
C188        C514   1.495       .  S
C188        C189   1.384       .  A
C189        C190   1.359       .  A
C189        H192   1.082       .  S
C190        C191   1.377       .  A
C190        H193   1.083       .  S
C191        C664   1.482       .  S
N194        C198   1.375       .  A
N194        C195   1.364       .  A
N194        C504   1.461       .  S
C195        C494   1.472       .  S
C195        C196   1.375       .  A
C196        C197   1.357       .  A
C196        H199   1.083       .  S
C197        C198   1.387       .  A
C197        H200   1.082       .  S
C198        C657   1.495       .  S
N201        C205   1.373       .  A
N201        C202   1.368       .  A
N201        C484   1.460       .  S
C202        C697   1.476       .  S
C202        C203   1.376       .  A
C203        C204   1.356       .  A
C203        H206   1.083       .  S
C204        C205   1.383       .  A
C204        H207   1.083       .  S
C205        C474   1.491       .  S
N208        C212   1.367       .  A
N208        C209   1.373       .  A
N208        C464   1.467       .  S
C209        C677   1.490       .  S
C209        C210   1.384       .  A
C210        C211   1.357       .  A
C210        H213   1.082       .  S
C211        C212   1.377       .  A
C211        H214   1.083       .  S
C212        C454   1.476       .  S
N215        C220   1.364       .  A
N215        C219   1.364   1_545  A
N215        H247   1.034       .  S
N216        C223   1.362   1_556  A
N216        C224   1.362       .  A
N217        C222   1.364       .  A
N217        C221   1.363   1_545  A
N217        H248   1.034       .  S
N218        C225   1.362   1_556  A
N218        C226   1.362       .  A
C219        C227   1.388       .  A
C219        C235   1.438       .  A
C220        C236   1.436       .  A
C220        C228   1.388       .  A
C221        C229   1.386       .  A
C221        C238   1.434       .  A
C222        C237   1.438       .  A
C222        C230   1.389       .  A
C223        C235   1.435       .  A
C223        C231   1.388       .  A
C224        C238   1.432       .  A
C224        C232   1.386       .  A
C225        C233   1.386       .  A
C225        C236   1.433       .  A
C226        C234   1.387       .  A
C226        C237   1.434       .  A
C227        C228   1.378   1_565  A
C227        H239   1.082       .  S
C228        H240   1.082       .  S
C229        C230   1.379   1_565  A
C229        H241   1.082       .  S
C230        H242   1.081       .  S
C231        C232   1.377   1_554  A
C231        H243   1.082       .  S
C232        H244   1.082       .  S
C233        C234   1.376   1_554  A
C233        H245   1.082       .  S
C234        H246   1.082       .  S
C235        C527   1.528       .  S
C236        C507   1.522       .  S
C237        C487   1.524       .  S
C238        C467   1.522       .  S
N249        C253   1.370       .  A
N249        C250   1.375       .  A
N249        C444   1.467       .  S
C250        C567   1.481       .  S
C250        C251   1.382       .  A
C251        C252   1.353       .  A
C251        H254   1.083       .  S
C252        C253   1.379       .  A
C252        H255   1.083       .  S
C253        C437   1.473       .  S
N256        C260   1.367       .  A
N256        C257   1.366       .  A
N256        C427   1.464       .  S
C257        C417   1.493       .  S
C257        C258   1.383       .  A
C258        C259   1.361       .  A
C258        H261   1.083       .  S
C259        C260   1.384       .  A
C259        H262   1.082       .  S
C260        C537   1.493       .  S
N263        C267   1.371       .  A
N263        C264   1.370       .  A
N263        C407   1.465       .  S
C264        C394   1.478       .  S
C264        C265   1.381       .  A
C265        C266   1.356       .  A
C265        H268   1.083       .  S
C266        C267   1.378       .  A
C266        H269   1.083       .  S
C267        C557   1.475       .  S
N270        C274   1.370       .  A
N270        C271   1.370       .  A
N270        C384   1.463       .  S
C271        C544   1.482       .  S
C271        C272   1.381       .  A
C272        C273   1.356       .  A
C272        H275   1.083       .  S
C273        C274   1.380       .  A
C273        H276   1.083       .  S
C274        C374   1.478       .  S
N277        C282   1.366   1_455  A
N277        C281   1.366       .  A
N277        H309   1.031       .  S
N278        C285   1.365       .  A
N278        C286   1.365   1_565  A
N279        C284   1.363   1_455  A
N279        C283   1.362       .  A
N279        H310   1.035       .  S
N280        C287   1.360       .  A
N280        C288   1.361   1_565  A
C281        C289   1.389       .  A
C281        C297   1.445       .  A
C282        C298   1.444       .  A
C282        C290   1.387       .  A
C283        C291   1.390       .  A
C283        C300   1.436       .  A
C284        C299   1.429       .  A
C284        C292   1.384       .  A
C285        C297   1.444       .  A
C285        C293   1.388       .  A
C286        C300   1.442       .  A
C286        C294   1.387       .  A
C287        C295   1.389       .  A
C287        C298   1.434       .  A
C288        C296   1.384       .  A
C288        C299   1.427       .  A
C289        C290   1.382   1_455  A
C289        H301   1.082       .  S
C290        H302   1.082       .  S
C291        C292   1.376   1_455  A
C291        H303   1.082       .  S
C292        H304   1.082       .  S
C293        C294   1.381   1_565  A
C293        H305   1.082       .  S
C294        H306   1.082       .  S
C295        C296   1.373   1_565  A
C295        H307   1.081       .  S
C296        H308   1.082       .  S
C297        C447   1.535       .  S
C298        C387   1.526       .  S
C299        C424   1.516       .  S
C300        C404   1.528       .  S
O311       Zr323   2.384   1_565  S
O311        C313   1.277       .  A
O312       Zr349   2.483       .  S
O312        C313   1.300       .  A
C313        C434   1.474       .  S
O314       Zr326   2.409   1_545  S
O314        C316   1.282       .  A
O315       Zr350   2.465       .  S
O315        C316   1.297       .  A
C316        C497   1.476       .  S
O317       Zr326   2.413       .  S
O317        C319   1.274       .  A
O318       Zr349   2.484       .  S
O318        C319   1.295       .  A
C319        C517   1.488       .  S
O320       Zr323   2.401       .  S
O320        C322   1.279       .  A
O321       Zr350   2.464       .  S
O321        C322   1.295       .  A
C322        C397   1.469       .  S
Zr323       O324   2.435       .  S
Zr323       O325   2.435       .  S
Zr323       O329   2.357   1_545  S
Zr323       O330   2.356       .  S
Zr323       O353   2.357       .  S
Zr323       O355   2.364   1_545  S
O324        H367   0.990       .  S
O325        H366   0.990       .  S
O325        H370   0.990       .  S
Zr326       O327   2.438       .  S
Zr326       O328   2.434       .  S
Zr326       O330   2.367   1_565  S
Zr326       O329   2.359       .  S
Zr326       O354   2.372       .  S
Zr326       O356   2.357   1_565  S
O327        H368   0.990   1_565  S
O327        H371   0.990       .  S
O328        H361   0.990       .  S
O329       Zr349   2.394       .  S
O330       Zr350   2.400       .  S
O330        H357   0.965       .  S
O331       Zr343   2.394       .  S
O331        C333   1.273       .  A
O332       Zr350   2.502       .  S
O332        C333   1.301       .  A
C333        C477   1.480       .  S
O334       Zr346   2.404   1_565  S
O334        C336   1.281       .  A
O335       Zr349   2.477       .  S
O335        C336   1.299       .  A
C336        C377   1.486       .  S
O337       Zr346   2.418       .  S
O337        C339   1.274       .  A
O338       Zr350   2.462       .  S
O338        C339   1.292       .  A
C339        C414   1.496       .  S
O340       Zr343   2.390   1_565  S
O340        C342   1.278       .  A
O341       Zr349   2.496       .  S
O341        C342   1.303       .  A
C342        C457   1.490       .  S
Zr343       O344   2.436       .  S
Zr343       O345   2.435       .  S
Zr343       O351   2.357       .  S
Zr343       O352   2.354   1_545  S
Zr343       O355   2.370   1_545  S
Zr343       O353   2.373       .  S
O344        H364   0.990   1_545  S
O344        H369   0.990       .  S
O345        H365   0.990       .  S
Zr346       O347   2.435       .  S
Zr346       O348   2.440   1_545  S
Zr346       O352   2.370   1_545  S
Zr346       O351   2.365       .  S
Zr346       O356   2.359       .  S
Zr346       O354   2.361   1_545  S
O347        H363   0.990       .  S
O348        H362   0.990       .  S
O348        H372   0.990   1_565  S
Zr349       O352   2.387       .  S
Zr349       O354   2.410       .  S
Zr349       O355   2.398       .  S
Zr350       O351   2.409       .  S
Zr350       O353   2.384       .  S
Zr350       O356   2.399       .  S
O351        H359   0.965       .  S
O354        H358   0.964       .  S
O355        H360   0.965       .  S
C373        C374   1.398       .  A
C373        C378   1.402       .  A
C373        F380   1.358       .  S
C374        C375   1.413       .  A
C375        C376   1.401       .  A
C375        F382   1.358       .  S
C376        C377   1.401       .  A
C376        F381   1.358       .  S
C377        C378   1.417       .  A
C378        F379   1.358       .  S
C383        C384   1.410       .  A
C383        C388   1.418       .  A
C383        F390   1.357       .  S
C384        C385   1.413       .  A
C385        C386   1.410       .  A
C385        F392   1.357       .  S
C386        C387   1.408       .  A
C386        F391   1.357       .  S
C387        C388   1.417       .  A
C388        F389   1.357       .  S
C393        C394   1.405       .  A
C393        C398   1.402       .  A
C393        F400   1.357       .  S
C394        C395   1.410       .  A
C395        C396   1.398       .  A
C395        F402   1.359       .  S
C396        C397   1.402       .  A
C396        F401   1.358       .  S
C397        C398   1.407       .  A
C398        F399   1.358       .  S
C403        C404   1.409       .  A
C403        C408   1.412       .  A
C403        F410   1.357       .  S
C404        C405   1.417       .  A
C405        C406   1.418       .  A
C405        F412   1.357       .  S
C406        C407   1.409       .  A
C406        F411   1.356       .  S
C407        C408   1.414       .  A
C408        F409   1.357       .  S
C413        C414   1.404       .  A
C413        C418   1.400       .  A
C413        F420   1.358       .  S
C414        C415   1.420       .  A
C415        C416   1.402       .  A
C415        F422   1.355       .  S
C416        C417   1.397       .  A
C416        F421   1.356       .  S
C417        C418   1.418       .  A
C418        F419   1.358       .  S
C423        C424   1.414       .  A
C423        C428   1.419       .  A
C423        F430   1.357       .  S
C424        C425   1.404       .  A
C425        C426   1.405       .  A
C425        F432   1.357       .  S
C426        C427   1.416       .  A
C426        F431   1.357       .  S
C427        C428   1.411       .  A
C428        F429   1.357       .  S
C433        C434   1.398       .  A
C433        C438   1.399       .  A
C433        F440   1.357       .  S
C434        C435   1.414       .  A
C435        C436   1.401       .  A
C435        F442   1.359       .  S
C436        C437   1.400       .  A
C436        F441   1.358       .  S
C437        C438   1.411       .  A
C438        F439   1.358       .  S
C443        C444   1.411       .  A
C443        C448   1.416       .  A
C443        F450   1.357       .  S
C444        C445   1.412       .  A
C445        C446   1.418       .  A
C445        F452   1.357       .  S
C446        C447   1.415       .  A
C446        F451   1.357       .  S
C447        C448   1.414       .  A
C448        F449   1.357       .  S
C453        C454   1.395       .  A
C453        C458   1.400       .  A
C453        F460   1.358       .  S
C454        C455   1.412       .  A
C455        C456   1.401       .  A
C455        F462   1.358       .  S
C456        C457   1.401       .  A
C456        F461   1.357       .  S
C457        C458   1.422       .  A
C458        F459   1.358       .  S
C463        C464   1.412       .  A
C463        C468   1.415       .  A
C463        F470   1.356       .  S
C464        C465   1.416       .  A
C465        C466   1.413       .  A
C465        F472   1.357       .  S
C466        C467   1.409       .  A
C466        F471   1.358       .  S
C467        C468   1.411       .  A
C468        F469   1.357       .  S
C473        C474   1.408       .  A
C473        C478   1.410       .  A
C473        F480   1.357       .  S
C474        C475   1.411       .  A
C475        C476   1.400       .  A
C475        F482   1.358       .  S
C476        C477   1.403       .  A
C476        F481   1.358       .  S
C477        C478   1.411       .  A
C478        F479   1.358       .  S
C483        C484   1.409       .  A
C483        C488   1.418       .  A
C483        F490   1.356       .  S
C484        C485   1.411       .  A
C485        C486   1.409       .  A
C485        F492   1.357       .  S
C486        C487   1.409       .  A
C486        F491   1.358       .  S
C487        C488   1.415       .  A
C488        F489   1.357       .  S
C493        C494   1.411       .  A
C493        C498   1.402       .  A
C493        F500   1.358       .  S
C494        C495   1.400       .  A
C495        C496   1.399       .  A
C495        F502   1.358       .  S
C496        C497   1.411       .  A
C496        F501   1.359       .  S
C497        C498   1.401       .  A
C498        F499   1.358       .  S
C503        C504   1.411       .  A
C503        C508   1.412       .  A
C503        F510   1.357       .  S
C504        C505   1.410       .  A
C505        C506   1.415       .  A
C505        F512   1.356       .  S
C506        C507   1.413       .  A
C506        F511   1.357       .  S
C507        C508   1.410       .  A
C508        F509   1.357       .  S
C513        C514   1.408       .  A
C513        C518   1.409       .  A
C513        F520   1.357       .  S
C514        C515   1.412       .  A
C515        C516   1.401       .  A
C515        F522   1.358       .  S
C516        C517   1.405       .  A
C516        F521   1.358       .  S
C517        C518   1.411       .  A
C518        F519   1.357       .  S
C523        C524   1.415       .  A
C523        C528   1.410       .  A
C523        F530   1.357       .  S
C524        C525   1.409       .  A
C525        C526   1.417       .  A
C525        F532   1.356       .  S
C526        C527   1.416       .  A
C526        F531   1.357       .  S
C527        C528   1.411       .  A
C528        F529   1.358       .  S
C533        C534   1.406       .  A
C533        C538   1.405       .  A
C533        F540   1.358       .  S
C534        C535   1.403       .  A
C535        C536   1.399       .  A
C535        F542   1.358       .  S
C536        C537   1.412       .  A
C536        F541   1.358       .  S
C537        C538   1.411       .  A
C538        F539   1.357       .  S
C543        C544   1.406       .  A
C543        C548   1.404       .  A
C543        F550   1.357       .  S
C544        C545   1.410       .  A
C545        C546   1.398       .  A
C545        F552   1.358       .  S
C546        C547   1.402       .  A
C546        F551   1.358       .  S
C547        C548   1.407       .  A
C548        F549   1.358       .  S
C553        C554   1.408       .  A
C553        C558   1.400       .  A
C553        F560   1.358       .  S
C554        C555   1.404       .  A
C555        C556   1.408       .  A
C555        F562   1.358       .  S
C556        C557   1.413       .  A
C556        F561   1.358       .  S
C557        C558   1.402       .  A
C558        F559   1.358       .  S
C563        C564   1.400       .  A
C563        C568   1.400       .  A
C563        F570   1.358       .  S
C564        C565   1.411       .  A
C565        C566   1.402       .  A
C565        F572   1.358       .  S
C566        C567   1.402       .  A
C566        F571   1.357       .  S
C567        C568   1.415       .  A
C568        F569   1.359       .  S
C573        C574   1.399       .  A
C573        C578   1.396       .  A
C573        F580   1.358       .  S
C574        C575   1.410       .  A
C575        C576   1.404       .  A
C575        F582   1.357       .  S
C576        C577   1.401       .  A
C576        F581   1.357       .  S
C577        C578   1.412       .  A
C578        F579   1.358       .  S
C583        C584   1.411       .  A
C583        C588   1.409       .  A
C583        F590   1.357       .  S
C584        C585   1.409       .  A
C585        C586   1.418       .  A
C585        F592   1.357       .  S
C586        C587   1.415       .  A
C586        F591   1.357       .  S
C587        C588   1.408       .  A
C588        F589   1.357       .  S
C593        C594   1.404       .  A
C593        C598   1.404       .  A
C593        F600   1.355       .  S
C594        C595   1.420       .  A
C595        C596   1.400       .  A
C595        F602   1.357       .  S
C596        C597   1.401       .  A
C596        F601   1.358       .  S
C597        C598   1.420       .  A
C598        F599   1.355       .  S
C603        C604   1.414       .  A
C603        C608   1.416       .  A
C603        F610   1.357       .  S
C604        C605   1.407       .  A
C605        C606   1.406       .  A
C605        F612   1.358       .  S
C606        C607   1.414       .  A
C606        F611   1.357       .  S
C607        C608   1.408       .  A
C608        F609   1.356       .  S
C613        C614   1.402       .  A
C613        C618   1.400       .  A
C613        F620   1.358       .  S
C614        C615   1.410       .  A
C615        C616   1.408       .  A
C615        F622   1.358       .  S
C616        C617   1.407       .  A
C616        F621   1.357       .  S
C617        C618   1.411       .  A
C618        F619   1.358       .  S
C623        C624   1.414       .  A
C623        C628   1.413       .  A
C623        F630   1.357       .  S
C624        C625   1.409       .  A
C625        C626   1.414       .  A
C625        F632   1.356       .  S
C626        C627   1.413       .  A
C626        F631   1.357       .  S
C627        C628   1.410       .  A
C628        F629   1.358       .  S
C633        C634   1.401       .  A
C633        C638   1.399       .  A
C633        F640   1.357       .  S
C634        C635   1.415       .  A
C635        C636   1.401       .  A
C635        F642   1.358       .  S
C636        C637   1.399       .  A
C636        F641   1.358       .  S
C637        C638   1.410       .  A
C638        F639   1.358       .  S
C643        C644   1.414       .  A
C643        C648   1.416       .  A
C643        F650   1.357       .  S
C644        C645   1.411       .  A
C645        C646   1.409       .  A
C645        F652   1.357       .  S
C646        C647   1.410       .  A
C646        F651   1.356       .  S
C647        C648   1.409       .  A
C648        F649   1.357       .  S
C653        C654   1.411       .  A
C653        C658   1.404       .  A
C653        F660   1.358       .  S
C654        C655   1.400       .  A
C655        C656   1.401       .  A
C655        F662   1.358       .  S
C656        C657   1.417       .  A
C656        F661   1.358       .  S
C657        C658   1.406       .  A
C658        F659   1.356       .  S
C663        C664   1.413       .  A
C663        C668   1.411       .  A
C663        F670   1.358       .  S
C664        C665   1.401       .  A
C665        C666   1.398       .  A
C665        F672   1.358       .  S
C666        C667   1.409       .  A
C666        F671   1.358       .  S
C667        C668   1.405       .  A
C668        F669   1.357       .  S
C673        C674   1.401       .  A
C673        C678   1.399       .  A
C673        F680   1.358       .  S
C674        C675   1.409       .  A
C675        C676   1.406       .  A
C675        F682   1.358       .  S
C676        C677   1.407       .  A
C676        F681   1.357       .  S
C677        C678   1.414       .  A
C678        F679   1.358       .  S
C683        C684   1.407       .  A
C683        C688   1.406       .  A
C683        F690   1.357       .  S
C684        C685   1.412       .  A
C685        C686   1.399       .  A
C685        F692   1.358       .  S
C686        C687   1.402       .  A
C686        F691   1.358       .  S
C687        C688   1.409       .  A
C688        F689   1.358       .  S
C693        C694   1.413       .  A
C693        C698   1.400       .  A
C693        F700   1.358       .  S
C694        C695   1.405       .  A
C695        C696   1.407       .  A
C695        F702   1.357       .  S
C696        C697   1.410       .  A
C696        F701   1.358       .  S
C697        C698   1.401       .  A
C698        F699   1.358       .  S
C703        C704   1.402       .  A
C703        C708   1.399       .  A
C703        F710   1.358       .  S
C704        C705   1.410       .  A
C705        C706   1.408       .  A
C705        F712   1.358       .  S
C706        C707   1.407       .  A
C706        F711   1.357       .  S
C707        C708   1.411       .  A
C708        F709   1.358       .  S
C713        C714   1.411       .  A
C713        C718   1.398       .  A
C713        F720   1.358       .  S
C714        C715   1.407       .  A
C715        C716   1.407       .  A
C715        F722   1.357       .  S
C716        C717   1.410       .  A
C716        F721   1.358       .  S
C717        C718   1.402       .  A
C718        F719   1.357       .  S
C723        C724   1.411       .  A
C723        C728   1.407       .  A
C723        F730   1.358       .  S
C724        C725   1.401       .  A
C725        C726   1.402       .  A
C725        F732   1.358       .  S
C726        C727   1.413       .  A
C726        F731   1.358       .  S
C727        C728   1.405       .  A
C728        F729   1.357       .  S
