geometry optimzed in LAMMPS
_audit_creation_date              2020-11-30 
_audit_creation_method            'lammps2cif' 
_symmetry_space_group_name_H-M    'P1' 
_symmetry_Int_Tables_number       1 
_symmetry_cell_setting            triclinic 
loop_ 
_symmetry_equiv_pos_as_xyz 
  x,y,z 
_cell_length_a                    53.58225141 
_cell_length_b                    53.61002346071548 
_cell_length_c                    36.41813431756884 
_cell_angle_alpha                 90.22568032873826 
_cell_angle_beta                  89.65064148281691 
_cell_angle_gamma                 121.58874064718461 
loop_ 
_atom_site_label 
_atom_site_type_symbol 
_atom_site_fract_x 
_atom_site_fract_y 
_atom_site_fract_z 
_atom_site_charge 
In1        In  0.10416114  0.69991545  0.50704985     1.36900
C2          C  0.05482617  0.70066948  0.50902895     0.77000
O3          O  0.08975186  0.68603308  0.44873807    -0.61400
O4          O  0.11459937  0.67078780  0.47412550    -0.52300
C5          C  0.15338563  0.75276655  0.50518974     0.69700
O6          O  0.13014969  0.74841009  0.52014517    -0.47200
C7          C  0.10125767  0.66818114  0.56522174     0.74400
O8          O  0.07165768  0.70902690  0.48148944    -0.59100
O9          O  0.12133908  0.69463831  0.56118568    -0.49100
O10         O  0.06466445  0.69453285  0.53665613    -0.55500
C11         C  0.10150393  0.67105960  0.44562343     0.84600
O12         O  0.15120061  0.73016383  0.49143438    -0.57400
O13         O  0.08303018  0.65799160  0.53931210    -0.60700
In14       In  0.88008136  0.59182745  0.49967546     1.36900
C15         C  0.93181025  0.64176284  0.50026859     0.77000
O16         O  0.90130421  0.57397659  0.53470981    -0.61400
O17         O  0.86283811  0.57094160  0.55551616    -0.52300
C18         C  0.83251840  0.59577705  0.49613523     0.69700
O19         O  0.85810696  0.61808897  0.49666280    -0.47200
C20         C  0.87844525  0.56069455  0.44101229     0.74400
O21         O  0.92054156  0.62671722  0.47177632    -0.59100
O22         O  0.87976593  0.55370622  0.47359502    -0.49100
O23         O  0.91521622  0.63270681  0.52805794    -0.55500
C24         C  0.88313450  0.56596688  0.56074138     0.84600
O25         O  0.83161703  0.57188080  0.49861653    -0.57400
O26         O  0.87644589  0.58300939  0.43852128    -0.60700
C27         C  0.10324065  0.57547018  0.74187125     0.85900
C28         C  0.10819257  0.55588999  0.71520979    -0.54300
C29         C  0.09198804  0.54832583  0.68392818     0.08900
C30         C  0.07198094  0.56083683  0.68187951     0.19800
C31         C  0.10976691  0.60170139  0.71715317    -0.55000
C32         C  0.09314493  0.59403168  0.68596975     0.09000
C33         C  0.06994744  0.55877081  0.74870486    -0.54600
C34         C  0.05352650  0.55095708  0.71740884     0.09500
H35         H  0.12504451  0.55067330  0.71890221     0.14000
H36         H  0.05873500  0.55460502  0.65640368    -0.00200
H37         H  0.12643178  0.62421133  0.72323859     0.14300
H38         H  0.06023536  0.55370026  0.77598236     0.14100
C39         C  0.87436832  0.46906577  0.25970611     0.85900
C40         C  0.90755621  0.48769881  0.25101359    -0.54300
C41         C  0.92514108  0.49484688  0.28119095     0.08900
C42         C  0.90799824  0.48363099  0.31747651     0.19800
C43         C  0.87028802  0.44286550  0.28210672    -0.55000
C44         C  0.88765870  0.45043383  0.31247295     0.09000
C45         C  0.87014189  0.48818891  0.28801211    -0.54600
C46         C  0.88729633  0.49542848  0.31858529     0.09500
H47         H  0.91671698  0.49635534  0.22418459     0.14000
H48         H  0.92246582  0.48980271  0.34174725    -0.00200
H49         H  0.85445226  0.42027932  0.27488806     0.14300
H50         H  0.85439343  0.49490911  0.28452615     0.14100
In51       In  0.66383560  0.13643510  0.50527283     1.36900
C52         C  0.65983954  0.08475091  0.51251715     0.77000
O53         O  0.65734253  0.14080941  0.56559510    -0.61400
O54         O  0.62134513  0.12711477  0.52974365    -0.52300
C55         C  0.71832616  0.18448623  0.50653055     0.69700
O56         O  0.71299084  0.16029361  0.49388462    -0.47200
C57         C  0.63687196  0.13721052  0.44337253     0.74400
O58         O  0.67166715  0.10109847  0.48499769    -0.59100
O59         O  0.64572510  0.15682992  0.46760680    -0.49100
O60         O  0.65212240  0.09585887  0.53717855    -0.55500
C61         C  0.63079820  0.13323342  0.56225750     0.84600
O62         O  0.69601458  0.18369835  0.51896201    -0.57400
O63         O  0.64233850  0.11764238  0.45062929    -0.60700
In64       In  0.55234312  0.90779165  0.50608171     1.36900
C65         C  0.60064964  0.96058542  0.51122475     0.77000
O66         O  0.55277624  0.92646524  0.45103480    -0.61400
O67         O  0.51262182  0.89065448  0.47005340    -0.52300
C68         C  0.55810981  0.86107285  0.50126847     0.69700
O69         O  0.57967711  0.88668775  0.50556798    -0.47200
C70         C  0.52192314  0.90914735  0.56348028     0.74400
O71         O  0.59270155  0.94603040  0.48178102    -0.59100
O72         O  0.52066518  0.91796015  0.53192058    -0.49100
O73         O  0.58539321  0.94676308  0.53888261    -0.55500
C74         C  0.52590444  0.90929226  0.44502038     0.84600
O75         O  0.53400100  0.85966902  0.49977279    -0.57400
O76         O  0.53858164  0.89913478  0.56561435    -0.60700
C77         C  0.54483775  0.13609612  0.26493570     0.85900
C78         C  0.52457860  0.13979075  0.29169593    -0.54300
C79         C  0.51746477  0.12332635  0.32289909     0.08900
C80         C  0.53101994  0.10430061  0.32478847     0.19800
C81         C  0.57130128  0.14232969  0.28872634    -0.55000
C82         C  0.56408481  0.12589118  0.31988200     0.09000
C83         C  0.52889905  0.10250925  0.25810283    -0.54600
C84         C  0.52093429  0.08574703  0.28940169     0.09500
H85         H  0.51781927  0.15540695  0.28714473     0.14000
H86         H  0.52532100  0.09139822  0.35055984    -0.00200
H87         H  0.59381185  0.15891349  0.28201289     0.14300
H88         H  0.52590555  0.09239104  0.23155318     0.14100
C89         C  0.43022994  0.90679090  0.74289181     0.85900
C90         C  0.44877367  0.93959117  0.75255893    -0.54300
C91         C  0.45775892  0.95776547  0.72270053     0.08900
C92         C  0.44726047  0.94146512  0.68589554     0.19800
C93         C  0.40485330  0.90375736  0.71916220    -0.55000
C94         C  0.41382747  0.92209964  0.68948732     0.09000
C95         C  0.44865419  0.90154571  0.71472161    -0.54600
C96         C  0.45769283  0.91972594  0.68505486     0.09500
H97         H  0.45404475  0.94766515  0.78056160     0.14000
H98         H  0.45462895  0.95619052  0.66175223    -0.00200
H99         H  0.38189286  0.88769954  0.72414178     0.14300
H100        H  0.45272281  0.88379331  0.71671669     0.14100
C101        C  0.55055002  0.47082695  0.26213154     0.85900
C102        C  0.57564101  0.49163496  0.28823339    -0.54300
C103        C  0.56680954  0.50068480  0.31820951     0.08900
C104        C  0.53368404  0.48827593  0.31914091     0.19800
C105        C  0.52810335  0.44583645  0.28725337    -0.55000
C106        C  0.51977184  0.45509411  0.31721501     0.09000
C107        C  0.53530949  0.48779145  0.25241167    -0.54600
C108        C  0.52670991  0.49704549  0.28227619     0.09500
H109        H  0.59811458  0.49735988  0.28411540     0.14000
H110        H  0.52601195  0.49513724  0.34332997    -0.00200
H111        H  0.52072625  0.42293892  0.28291716     0.14300
H112        H  0.53105250  0.49209033  0.22489442     0.14100
C113        C  0.43562954  0.57980760  0.26235167     0.85900
C114        C  0.41019714  0.55872026  0.28763046    -0.54300
C115        C  0.41845522  0.54890724  0.31674348     0.08900
C116        C  0.45135987  0.56081702  0.31821183     0.19800
C117        C  0.45813055  0.60419021  0.28801805    -0.55000
C118        C  0.46598480  0.59425634  0.31763850     0.09000
C119        C  0.45091844  0.56303649  0.25142751    -0.54600
C120        C  0.45923351  0.55324332  0.28085964     0.09500
H121        H  0.38774249  0.55310244  0.28374767     0.14000
H122        H  0.45767741  0.55246380  0.34204222    -0.00200
H123        H  0.46622793  0.62722319  0.28379966     0.14300
H124        H  0.45681173  0.56096030  0.22356103     0.14100
C125        C  0.43959812  0.58757185  0.73830457     0.85900
C126        C  0.45927046  0.61260715  0.71143592    -0.54300
C127        C  0.46691650  0.60373934  0.68042204     0.08900
C128        C  0.45478788  0.57068394  0.67925094     0.19800
C129        C  0.41359647  0.56466431  0.71497232    -0.55000
C130        C  0.42129901  0.55619781  0.68349806     0.09000
C131        C  0.45714176  0.57261000  0.74600018    -0.54600
C132        C  0.46526290  0.56403558  0.71508694     0.09500
H133        H  0.46583931  0.63526582  0.71611127     0.14000
H134        H  0.46165439  0.56385793  0.65430014    -0.00200
H135        H  0.39102251  0.55595308  0.72319204     0.14300
H136        H  0.46289392  0.56871444  0.77287535     0.14100
In137      In  0.31512573  0.45855063  0.50213160     1.36900
C138        C  0.31810664  0.41015829  0.50518655     0.77000
O139        O  0.32657271  0.45922723  0.44236868    -0.61400
O140        O  0.34791121  0.49934190  0.47152648    -0.52300
C141        C  0.26316493  0.45561459  0.50001495     0.69700
O142        O  0.26522168  0.43414109  0.50958201    -0.47200
C143        C  0.34666850  0.48761337  0.56143905     0.74400
O144        O  0.31374128  0.41957153  0.47575788    -0.59100
O145        O  0.35745044  0.48285773  0.53337556    -0.49100
O146        O  0.31720524  0.42335489  0.53340070    -0.55500
C147        C  0.34536103  0.48627883  0.44159080     0.84600
O148        O  0.28728157  0.47767046  0.49066519    -0.57400
O149        O  0.31964024  0.47808550  0.55891124    -0.60700
In150      In  0.43229761  0.35238052  0.50443582     1.36900
C151        C  0.38200211  0.35165921  0.50469742     0.77000
O152        O  0.44466309  0.38964040  0.54356737    -0.61400
O153        O  0.46418396  0.36463481  0.55150028    -0.52300
C154        C  0.42726545  0.29934415  0.50157774     0.69700
O155        O  0.41103994  0.30427681  0.52167298    -0.47200
C156        C  0.46118613  0.38464306  0.44550472     0.74400
O157        O  0.39471556  0.35103942  0.47580446    -0.59100
O158        O  0.47378942  0.38660817  0.47549890    -0.49100
O159        O  0.39310390  0.34887200  0.53373528    -0.55500
C160        C  0.46175912  0.38559219  0.56255850     0.84600
O161        O  0.44493916  0.32111115  0.48266487    -0.57400
O162        O  0.43407095  0.36614634  0.44583498    -0.60700
C163        C  0.55430342  0.47965289  0.74024817     0.85900
C164        C  0.53341145  0.45431516  0.71480295    -0.54300
C165        C  0.52491062  0.46264995  0.68438095     0.08900
C166        C  0.53815251  0.49585219  0.68183319     0.19800
C167        C  0.57983877  0.50101916  0.71487782    -0.55000
C168        C  0.57143586  0.50932545  0.68425861     0.09000
C169        C  0.53821135  0.49616359  0.74862798    -0.54600
C170        C  0.52948012  0.50419498  0.71795833     0.09500
H171        H  0.52655464  0.43164420  0.71997201     0.14000
H172        H  0.53166110  0.50284991  0.65686850    -0.00200
H173        H  0.60233374  0.50716660  0.71946797     0.14300
H174        H  0.53510339  0.50274302  0.77549071     0.14100
In175      In  0.56233864  0.70505167  0.49569221     1.36900
C176        C  0.61230042  0.70539569  0.49309723     0.77000
O177        O  0.56047241  0.69832626  0.55751176    -0.61400
O178        O  0.52258240  0.67156929  0.52585967    -0.52300
C179        C  0.56205246  0.75495887  0.49516106     0.69700
O180        O  0.58536071  0.75468429  0.49264903    -0.47200
C181        C  0.53331816  0.66948904  0.43941176     0.74400
O182        O  0.60041471  0.70622540  0.52260235    -0.59100
O183        O  0.53354293  0.66050132  0.47123372    -0.49100
O184        O  0.59975712  0.70669251  0.46466981    -0.55500
C185        C  0.53408209  0.67742357  0.55725246     0.84600
O186        O  0.53944502  0.72989895  0.49750001    -0.57400
O187        O  0.54862896  0.69701499  0.43607975    -0.60700
In188      In  0.67509518  0.59733609  0.49747366     1.36900
C189        C  0.67340701  0.64611310  0.49270839     0.77000
O190        O  0.66843244  0.58258015  0.43838432    -0.61400
O191        O  0.63113657  0.56850905  0.47228427    -0.52300
C192        C  0.72656245  0.60004980  0.49548719     0.69700
O193        O  0.72487432  0.62259869  0.49622191    -0.47200
C194        C  0.64591304  0.56879361  0.55819308     0.74400
O195        O  0.67438417  0.63256064  0.46499026    -0.59100
O196        O  0.64150411  0.55694937  0.52707110    -0.49100
O197        O  0.67564375  0.63592820  0.52277990    -0.55500
C198        C  0.64081912  0.56758981  0.44102475     0.84600
O199        O  0.70205352  0.57654482  0.49638839    -0.57400
O200        O  0.66682347  0.59514881  0.55884871    -0.60700
C201        C  0.59214069  0.42709909  0.85416899     0.85900
C202        C  0.62547406  0.43890024  0.85558311    -0.54300
C203        C  0.63275185  0.42347068  0.87851753     0.08900
C204        C  0.60603852  0.39854228  0.89900036     0.19800
C205        C  0.57789138  0.39423718  0.84494730    -0.55000
C206        C  0.58526501  0.37941568  0.86836227     0.09000
C207        C  0.58393868  0.42786726  0.89491047    -0.54600
C208        C  0.59134939  0.41294431  0.91821327     0.09500
H209        H  0.64128960  0.45608784  0.83760794     0.14000
H210        H  0.61153476  0.38633208  0.91856808    -0.00200
H211        H  0.56426981  0.38395682  0.82099807     0.14300
H212        H  0.57422800  0.43978402  0.90537237     0.14100
C213        C  0.58132957  0.22634256  0.85893393     0.85900
C214        C  0.56939844  0.24657914  0.85148448    -0.54300
C215        C  0.58148123  0.27116331  0.87274355     0.08900
C216        C  0.60434842  0.27336630  0.90029053     0.19800
C217        C  0.61486951  0.24652173  0.85523096    -0.55000
C218        C  0.62692985  0.27106637  0.87655180     0.09000
C219        C  0.57648606  0.22010205  0.90074100    -0.54600
C220        C  0.58861112  0.24457405  0.92224946     0.09500
H221        H  0.55386646  0.24256726  0.82982953     0.14000
H222        H  0.61436730  0.29345453  0.91749470    -0.00200
H223        H  0.62798602  0.24171894  0.83707059     0.14300
H224        H  0.56546090  0.19903167  0.91386456     0.14100
C225        C  0.78291056  0.41966642  0.85320921     0.85900
C226        C  0.76438571  0.38567387  0.85340029    -0.54300
C227        C  0.74179691  0.37386257  0.87822911     0.08900
C228        C  0.74030581  0.39708990  0.90137399     0.19800
C229        C  0.76025372  0.42901709  0.84823470    -0.55000
C230        C  0.73784431  0.41699243  0.87332065     0.09000
C231        C  0.79306286  0.42742629  0.89365635    -0.54600
C232        C  0.77058603  0.41572980  0.91850895     0.09500
H233        H  0.76799390  0.37209338  0.83462230     0.14000
H234        H  0.72246648  0.38795053  0.92219373    -0.00200
H235        H  0.76132352  0.44297929  0.82599018     0.14300
H236        H  0.81568612  0.44017293  0.90244041     0.14100
C237        C  0.58828642  0.22621499  0.14574202     0.85900
C238        C  0.62199553  0.24704903  0.14780865    -0.54300
C239        C  0.63316085  0.27005488  0.12383566     0.08900
C240        C  0.60992255  0.27011825  0.09976612     0.19800
C241        C  0.57605077  0.24657857  0.15053057    -0.55000
C242        C  0.58755952  0.26955719  0.12662577     0.09000
C243        C  0.58279063  0.21703423  0.10455442    -0.54600
C244        C  0.59429071  0.24027440  0.08080023     0.09500
H245        H  0.63564134  0.24446928  0.16745789     0.14000
H246        H  0.61896108  0.28896920  0.08051930    -0.00200
H247        H  0.56121241  0.24416778  0.17258271     0.14300
H248        H  0.57081846  0.19475882  0.09448631     0.14100
C249        C  0.78476887  0.42762016  0.14158944     0.85900
C250        C  0.76644249  0.44231283  0.14263745    -0.54300
C251        C  0.74265945  0.42989636  0.11975923     0.08900
C252        C  0.74073856  0.40511119  0.09600062     0.19800
C253        C  0.76251618  0.39477078  0.14737392    -0.55000
C254        C  0.73950294  0.38302042  0.12370270     0.09000
C255        C  0.79386777  0.43014007  0.10067527    -0.54600
C256        C  0.77070812  0.41834480  0.07696759     0.09500
H257        H  0.77224078  0.46096967  0.16000345     0.14000
H258        H  0.72201463  0.39514654  0.07665623    -0.00200
H259        H  0.76485328  0.38194392  0.16856798     0.14300
H260        H  0.81622119  0.44099802  0.09065128     0.14100
C261        C  0.58888268  0.42226505  0.14146948     0.85900
C262        C  0.57877611  0.38979892  0.14899986    -0.54300
C263        C  0.59011506  0.37845351  0.12521482     0.08900
C264        C  0.60993451  0.40006360  0.09545344     0.19800
C265        C  0.62261499  0.43839401  0.14045905    -0.55000
C266        C  0.63378866  0.42693666  0.11650321     0.09000
C267        C  0.57992135  0.42173539  0.10097621    -0.54600
C268        C  0.59118814  0.41040352  0.07701211     0.09500
H269        H  0.56484282  0.37723438  0.17193250     0.14000
H270        H  0.61874557  0.39036473  0.07623900    -0.00200
H271        H  0.63642561  0.45680583  0.15829767     0.14300
H272        H  0.56518979  0.42834524  0.09139201     0.14100
C273        C  0.39180770  0.62457128  0.86145780     0.85900
C274        C  0.35830128  0.60605520  0.85526948    -0.54300
C275        C  0.34249305  0.61361978  0.87690913     0.08900
C276        C  0.36116926  0.63858761  0.90369126     0.19800
C277        C  0.39972667  0.65680856  0.85765026    -0.55000
C278        C  0.38348865  0.66406151  0.87942438     0.09000
C279        C  0.39505952  0.62140122  0.90326524    -0.54600
C280        C  0.37891058  0.62862138  0.92505629     0.09500
H281        H  0.34808564  0.58941219  0.83406166     0.14000
H282        H  0.34808529  0.64424757  0.92176921    -0.00200
H283        H  0.41602725  0.67215960  0.83833598     0.14300
H284        H  0.40899973  0.61528519  0.91615796     0.14100
C285        C  0.38644161  0.81749594  0.86038817     0.85900
C286        C  0.39891736  0.79697416  0.85833725    -0.54300
C287        C  0.38725968  0.77493560  0.88403222     0.08900
C288        C  0.36443910  0.77564449  0.90912006     0.19800
C289        C  0.35306874  0.79575549  0.85694259    -0.55000
C290        C  0.34148036  0.77370827  0.88222348     0.09000
C291        C  0.39140435  0.82843719  0.90015256    -0.54600
C292        C  0.37989127  0.80661932  0.92549561     0.09500
H293        H  0.41309801  0.79778922  0.83637100     0.14000
H294        H  0.35537685  0.75812370  0.93027048    -0.00200
H295        H  0.34009719  0.79659630  0.83479415     0.14300
H296        H  0.40313251  0.85146831  0.90761616     0.14100
C297        C  0.19306923  0.61330978  0.85641739     0.85900
C298        C  0.21478515  0.64669691  0.85238988    -0.54300
C299        C  0.23847633  0.65769562  0.87500780     0.08900
C300        C  0.23892391  0.63444443  0.89881236     0.19800
C301        C  0.21267682  0.60056464  0.84899656    -0.55000
C302        C  0.23603145  0.61091360  0.87187247     0.09000
C303        C  0.18578798  0.60863145  0.89791490    -0.54600
C304        C  0.20989109  0.62024382  0.92037283     0.09500
H305        H  0.21194357  0.66052784  0.83334408     0.14000
H306        H  0.25904204  0.64394020  0.91566696    -0.00200
H307        H  0.20929802  0.58552525  0.82687336     0.14300
H308        H  0.16345474  0.59718186  0.90820630     0.14100
C309        C  0.38750723  0.62141331  0.14763329     0.85900
C310        C  0.39571128  0.65364498  0.15296972    -0.54300
C311        C  0.38010760  0.66160322  0.13154104     0.08900
C312        C  0.35843175  0.63693278  0.10589489     0.19800
C313        C  0.35401186  0.60311436  0.15322161    -0.55000
C314        C  0.33892506  0.61123035  0.13142286     0.09000
C315        C  0.39260866  0.62018231  0.10599989    -0.54600
C316        C  0.37712030  0.62800287  0.08428816     0.09500
H317        H  0.41225905  0.66879984  0.17205899     0.14000
H318        H  0.34580813  0.64290574  0.08778757    -0.00200
H319        H  0.34333680  0.58630053  0.17414105     0.14300
H320        H  0.40865408  0.61618463  0.09409421     0.14100
C321        C  0.19377169  0.61972609  0.14470202     0.85900
C322        C  0.21140902  0.60515086  0.15317997    -0.54300
C323        C  0.23633968  0.61549579  0.13292397     0.08900
C324        C  0.24108806  0.63890293  0.10456869     0.19800
C325        C  0.21603890  0.65290958  0.14787801    -0.55000
C326        C  0.24054880  0.66292819  0.12685308     0.09000
C327        C  0.18797599  0.61439643  0.10278439    -0.54600
C328        C  0.21279854  0.62468320  0.08146331     0.09500
H329        H  0.20509157  0.58853723  0.17420346     0.14000
H330        H  0.26185753  0.64790593  0.08907248    -0.00200
H331        H  0.21265587  0.66729441  0.16549730     0.14300
H332        H  0.16664264  0.60271843  0.09031834     0.14100
C333        C  0.39236185  0.81933334  0.14739086     0.85900
C334        C  0.35850891  0.79922327  0.14984529    -0.54300
C335        C  0.34655261  0.77696484  0.12468785     0.08900
C336        C  0.36952391  0.77732185  0.09892804     0.19800
C337        C  0.40253915  0.79713525  0.15082464    -0.55000
C338        C  0.39078468  0.77522847  0.12510440     0.09000
C339        C  0.39871600  0.83006839  0.10748816    -0.54600
C340        C  0.38650786  0.80808270  0.08231468     0.09500
H341        H  0.34539527  0.80120616  0.17111525     0.14000
H342        H  0.36021306  0.75975219  0.07780363    -0.00200
H343        H  0.41445585  0.79649357  0.17437755     0.14300
H344        H  0.41083163  0.85305464  0.09985968     0.14100
In345      In  0.10845064  0.46480252  0.49649836     1.36900
C346        C  0.05417472  0.41730363  0.49394981     0.77000
O347        O  0.10208092  0.46740890  0.55736878    -0.61400
O348        O  0.12046473  0.50638069  0.52628176    -0.52300
C349        C  0.15694306  0.46088845  0.49741231     0.69700
O350        O  0.13144082  0.43909106  0.50196713    -0.47200
C351        C  0.10164844  0.49241022  0.43970432     0.74400
O352        O  0.07042505  0.42751770  0.46602387    -0.59100
O353        O  0.09760713  0.49646475  0.47274238    -0.49100
O354        O  0.06671327  0.42988875  0.52341046    -0.55500
C355        C  0.11104617  0.49438318  0.55712423     0.84600
O356        O  0.15732771  0.48415748  0.49132007    -0.57400
O357        O  0.10988532  0.47436090  0.43552190    -0.60700
In358      In  0.87760012  0.34985117  0.49635588     1.36900
C359        C  0.92893364  0.35283087  0.49487465     0.77000
O360        O  0.90001431  0.38949561  0.46039397    -0.61400
O361        O  0.85887820  0.35424668  0.44294641    -0.52300
C362        C  0.82894191  0.29610076  0.50171525     0.69700
O363        O  0.85212965  0.30045861  0.48654780    -0.47200
C364        C  0.87978336  0.38260609  0.55352526     0.74400
O365        O  0.91469327  0.35014612  0.46618336    -0.59100
O366        O  0.87262742  0.38545710  0.52160960    -0.49100
O367        O  0.91520162  0.35048378  0.52412967    -0.55500
C368        C  0.88055938  0.37948698  0.43603450     0.84600
O369        O  0.83083021  0.31913576  0.51336778    -0.57400
O370        O  0.88498510  0.36230395  0.55631090    -0.60700
C371        C  0.87555476  0.46814638  0.73650274     0.85900
C372        C  0.87263535  0.49062923  0.71381345    -0.54300
C373        C  0.89004428  0.50071845  0.68315475     0.08900
C374        C  0.91006284  0.48822225  0.67882301     0.19800
C375        C  0.87123035  0.44439490  0.70838012    -0.55000
C376        C  0.88901997  0.45495260  0.67820425     0.09000
C377        C  0.90859397  0.48346671  0.74544153    -0.54600
C378        C  0.92661739  0.49447427  0.71534832     0.09500
H379        H  0.85756531  0.49753044  0.72150324     0.14000
H380        H  0.92471315  0.49636742  0.65441510    -0.00200
H381        H  0.85543058  0.42117627  0.71175413     0.14300
H382        H  0.91731033  0.48371307  0.77217562     0.14100
C383        C  0.10385882  0.58460080  0.26268425     0.85900
C384        C  0.07079848  0.57008149  0.25382224    -0.54300
C385        C  0.05291144  0.56200612  0.28423013     0.08900
C386        C  0.06987348  0.56920278  0.32061541     0.19800
C387        C  0.11042826  0.61020386  0.28848204    -0.55000
C388        C  0.09282635  0.60206725  0.31875655     0.09000
C389        C  0.10506953  0.56205116  0.28755296    -0.54600
C390        C  0.08763489  0.55416657  0.31809880     0.09500
H391        H  0.06182715  0.56623319  0.22643780     0.14000
H392        H  0.05584933  0.56264728  0.34548002    -0.00200
H393        H  0.12809783  0.63265726  0.28382084     0.14300
H394        H  0.12002241  0.55450795  0.28240583     0.14100
In395      In  0.42636722  0.13934850  0.50391781     1.36900
C396        C  0.37525397  0.08861121  0.50644337     0.77000
O397        O  0.42997408  0.13029685  0.44412619    -0.61400
O398        O  0.46686268  0.14421424  0.47795996    -0.52300
C399        C  0.42366437  0.18835065  0.50230681     0.69700
O400        O  0.40461293  0.16509779  0.51803537    -0.47200
C401        C  0.45424344  0.13525044  0.56180280     0.74400
O402        O  0.38829344  0.10286985  0.53489634    -0.59100
O403        O  0.45482729  0.15850626  0.55411626    -0.49100
O404        O  0.38646835  0.10227501  0.47687895    -0.55500
C405        C  0.45590800  0.13590786  0.44649852     0.84600
O406        O  0.44368664  0.18622269  0.48730163    -0.57400
O407        O  0.43950596  0.11446588  0.53987312    -0.60700
In408      In  0.31578024  0.91458844  0.50411293     1.36900
C409        C  0.31630303  0.96480943  0.50321300     0.77000
O410        O  0.35292601  0.93751777  0.54419401    -0.61400
O411        O  0.31920791  0.89419718  0.55646935    -0.52300
C412        C  0.26394398  0.86413761  0.50144452     0.69700
O413        O  0.26608965  0.88845544  0.50713866    -0.47200
C414        C  0.34682975  0.91399320  0.44672813     0.74400
O415        O  0.30748197  0.94795618  0.53067068    -0.59100
O416        O  0.35481615  0.91578312  0.47960112    -0.49100
O417        O  0.32231153  0.95464681  0.47561031    -0.55500
C418        C  0.34333621  0.91618056  0.56595934     0.84600
O419        O  0.28814129  0.86614107  0.49628967    -0.57400
O420        O  0.32277210  0.91271645  0.44313958    -0.60700
C421        C  0.54137394  0.13566326  0.74198743     0.85900
C422        C  0.52514261  0.10265393  0.75177774    -0.54300
C423        C  0.51610159  0.08448840  0.72189830     0.08900
C424        C  0.52413210  0.10082518  0.68503000     0.19800
C425        C  0.56649367  0.14017645  0.71640886    -0.55000
C426        C  0.55738841  0.12215457  0.68641502     0.09000
C427        C  0.51999617  0.13835760  0.71676276    -0.54600
C428        C  0.51136187  0.12055659  0.68674614     0.09500
H429        H  0.52192558  0.09383580  0.77920329     0.14000
H430        H  0.51697142  0.08622249  0.66064668    -0.00200
H431        H  0.58924726  0.15720195  0.72067035     0.14300
H432        H  0.51342159  0.15416641  0.72129508     0.14100
C433        C  0.43506894  0.90707414  0.26648466     0.85900
C434        C  0.45531416  0.90233521  0.29156417    -0.54300
C435        C  0.46369657  0.91882904  0.32255250     0.08900
C436        C  0.45133076  0.93886192  0.32623800     0.19800
C437        C  0.40954145  0.90081280  0.29261292    -0.55000
C438        C  0.41800601  0.91790483  0.32344561     0.09000
C439        C  0.45168172  0.94042140  0.25950758    -0.54600
C440        C  0.46048041  0.95732881  0.29079691     0.09500
H441        H  0.46114627  0.88601285  0.28685778     0.14000
H442        H  0.45772838  0.95179085  0.35200192    -0.00200
H443        H  0.38717490  0.88295233  0.28859931     0.14300
H444        H  0.45621543  0.94970922  0.23208912     0.14100
C445        C  0.35600822  0.91540548  0.37906958    -0.26900
C446        C  0.36428229  0.91358964  0.41508149    -0.15000
C447        C  0.38947134  0.91193611  0.42026767     0.35700
C448        C  0.40584912  0.91241273  0.38984819    -0.26300
C449        C  0.39788739  0.91463308  0.35394831    -0.15600
C450        C  0.37255322  0.91613067  0.34860327     0.36800
N451        N  0.36392291  0.91996379  0.31293718    -0.89800
H452        H  0.33688544  0.91693193  0.37450874     0.17900
H453        H  0.42525152  0.91141798  0.39449915     0.17900
N454        N  0.39878367  0.91000215  0.45637653    -0.88800
H455        H  0.35819137  0.90153866  0.29696662     0.35200
H456        H  0.38167999  0.93834526  0.30062672     0.40300
H457        H  0.42008389  0.92784421  0.46014026     0.40000
H458        H  0.39940887  0.89086191  0.45782100     0.34900
C459        C  0.34177478  0.04218186  0.47351276    -0.26900
C460        C  0.35162093  0.05711749  0.50710411    -0.15000
C461        C  0.34336121  0.04061288  0.53990951     0.35700
C462        C  0.32869205  0.00988294  0.53822441    -0.26300
C463        C  0.32246699  0.99526499  0.50431655    -0.15600
C464        C  0.32740191  0.01146981  0.47173648     0.36800
N465        N  0.31926833  0.99684844  0.43678256    -0.89800
H466        H  0.34732383  0.05456129  0.44819476     0.17900
H467        H  0.32451954  0.99771045  0.56352960     0.17900
N468        N  0.35147271  0.05490178  0.57492725    -0.88800
H469        H  0.32486572  0.01193556  0.41549146     0.35200
H470        H  0.29644108  0.98329763  0.43657005     0.40300
H471        H  0.36455822  0.04862485  0.58827187     0.40000
H472        H  0.33237385  0.04738446  0.59047898     0.34900
C473        C  0.45898944  0.10385267  0.60774496    -0.26900
C474        C  0.46916224  0.13205660  0.59385812    -0.15000
C475        C  0.49341652  0.15645219  0.61055081     0.35700
C476        C  0.50622840  0.15218480  0.64154390    -0.26300
C477        C  0.49583039  0.12401471  0.65555562    -0.15600
C478        C  0.47218415  0.09966410  0.63830040     0.36800
N479        N  0.46116119  0.07072171  0.65213326    -0.89800
H480        H  0.44049129  0.08491542  0.59504212     0.17900
H481        H  0.52506518  0.17085369  0.65414005     0.17900
N482        N  0.50548595  0.18529286  0.59543027    -0.88800
H483        H  0.46251999  0.05816057  0.63107861     0.35200
H484        H  0.43904571  0.06155650  0.65885356     0.40300
H485        H  0.51387635  0.18532962  0.56941286     0.40000
H486        H  0.52321372  0.20076944  0.61109535     0.34900
C487        C  0.88576018  0.39375052  0.62068852    -0.26900
C488        C  0.88220519  0.40151857  0.58509417    -0.15000
C489        C  0.88145703  0.42733563  0.58036416     0.35700
C490        C  0.88395213  0.44440504  0.61119869    -0.26300
C491        C  0.88708626  0.43633898  0.64665315    -0.15600
C492        C  0.88823118  0.41087815  0.65146460     0.36800
N493        N  0.89227192  0.40272430  0.68749204    -0.89800
H494        H  0.88660684  0.37418441  0.62458573     0.17900
H495        H  0.88314417  0.46403268  0.60760537     0.17900
N496        N  0.87823747  0.43626990  0.54441173    -0.88800
H497        H  0.89261301  0.38341500  0.68636098     0.35200
H498        H  0.91289695  0.41915166  0.69675417     0.40300
H499        H  0.89727824  0.44211969  0.52950810     0.40000
H500        H  0.87700981  0.45508096  0.54598745     0.34900
C501        C  0.97559984  0.37026423  0.46055972    -0.26900
C502        C  0.96032005  0.36176445  0.49416587    -0.15000
C503        C  0.97631362  0.36703725  0.52697123     0.35700
C504        C  0.00710986  0.38330063  0.52574476    -0.26300
C505        C  0.02243152  0.39436088  0.49251573    -0.15600
C506        C  0.00645542  0.38653834  0.45932053     0.36800
N507        N  0.02140010  0.39680177  0.42467886    -0.89800
H508        H  0.96349808  0.36599261  0.43522905     0.17900
H509        H  0.01919597  0.38870471  0.55123686     0.17900
N510        N  0.96135300  0.35736869  0.56168565    -0.88800
H511        H  0.00639784  0.39028188  0.40316447     0.35200
H512        H  0.03321241  0.38653722  0.42020384     0.40300
H513        H  0.97632274  0.36378312  0.58321826     0.40000
H514        H  0.94937031  0.33447436  0.56142999     0.34900
C515        C  0.09623518  0.49804045  0.37239251    -0.26900
C516        C  0.09683156  0.50742705  0.40866664    -0.15000
C517        C  0.09247159  0.53091485  0.41478616     0.35700
C518        C  0.08850511  0.54491444  0.38497578    -0.26300
C519        C  0.08900113  0.53635750  0.34864392    -0.15600
C520        C  0.09208086  0.51203579  0.34236119     0.36800
N521        N  0.09056885  0.50135175  0.30567879    -0.89800
H522        H  0.09884593  0.47959359  0.36742593     0.17900
H523        H  0.08598877  0.56331943  0.39055596     0.17900
N524        N  0.09273161  0.54124308  0.45120967    -0.88800
H525        H  0.09311811  0.48330497  0.30579777     0.35200
H526        H  0.06953439  0.49392036  0.29574855     0.40300
H527        H  0.07273221  0.53979361  0.45582697     0.40000
H528        H  0.10937323  0.56332790  0.45260090     0.34900
C529        C  0.44429718  0.87921699  0.21621084    -0.26900
C530        C  0.42595440  0.88825005  0.23131225    -0.15000
C531        C  0.39947458  0.87942048  0.21280955     0.35700
C532        C  0.38949369  0.85779048  0.18539068    -0.26300
C533        C  0.40556440  0.84481799  0.17503473    -0.15600
C534        C  0.43465021  0.85802768  0.18813119     0.36800
N535        N  0.45448113  0.85026753  0.17281291    -0.89800
H536        H  0.46643064  0.88870816  0.22618964     0.17900
H537        H  0.36888230  0.85118327  0.17220178     0.17900
N538        N  0.38274678  0.89257231  0.22120330    -0.88800
H539        H  0.47488772  0.86182189  0.18567221     0.35200
H540        H  0.45798434  0.85673441  0.14528064     0.40300
H541        H  0.38103426  0.90224558  0.19724501     0.40000
H542        H  0.36163173  0.87595044  0.22885681     0.34900
C543        C  0.17663658  0.61434114  0.21006700    -0.26900
C544        C  0.16856779  0.61031977  0.17275910    -0.15000
C545        C  0.13865638  0.59936997  0.16473180     0.35700
C546        C  0.11798959  0.59125566  0.19350626    -0.26300
C547        C  0.12615845  0.59433444  0.23077379    -0.15600
C548        C  0.15623483  0.60672653  0.23856683     0.36800
N549        N  0.16636129  0.61158785  0.27576159    -0.89800
H550        H  0.19942207  0.62364460  0.21739307     0.17900
H551        H  0.09557149  0.58288126  0.18585069     0.17900
N552        N  0.12876875  0.59720413  0.12786724    -0.88800
H553        H  0.18186735  0.63389349  0.27898690     0.35200
H554        H  0.17680119  0.59997696  0.28021352     0.40300
H555        H  0.11239886  0.57542026  0.12287349     0.40000
H556        H  0.11950190  0.61010556  0.12545911     0.34900
C557        C  0.27817703  0.70795856  0.15963772    -0.26900
C558        C  0.26501896  0.69403192  0.12647851    -0.15000
C559        C  0.27653303  0.70924807  0.09325119     0.35700
C560        C  0.30170211  0.73750495  0.09356059    -0.26300
C561        C  0.31604878  0.75091749  0.12654913    -0.15600
C562        C  0.30374381  0.73596481  0.15998820     0.36800
N563        N  0.31832948  0.74794245  0.19414061    -0.89800
H564        H  0.26961823  0.69630691  0.18532604     0.17900
H565        H  0.31079336  0.74845517  0.06763658     0.17900
N566        N  0.26283238  0.69597424  0.05906776    -0.88800
H567        H  0.32337332  0.73329514  0.20571111     0.35200
H568        H  0.30374088  0.74952204  0.21176488     0.40300
H569        H  0.27825026  0.69496194  0.04242530     0.40000
H570        H  0.25696273  0.70954317  0.04616685     0.34900
C571        C  0.41146929  0.71680541  0.13429993    -0.26900
C572        C  0.38348715  0.69107026  0.13254095    -0.15000
C573        C  0.35881344  0.69379426  0.12992878     0.35700
C574        C  0.36233401  0.72134043  0.12797438    -0.26300
C575        C  0.38992584  0.74707814  0.12903414    -0.15600
C576        C  0.41493800  0.74474003  0.13251871     0.36800
N577        N  0.44398133  0.77002631  0.13259973    -0.89800
H578        H  0.43077991  0.71523116  0.13591115     0.17900
H579        H  0.34280590  0.72222687  0.12582363     0.17900
N580        N  0.32972707  0.66873176  0.13016518    -0.88800
H581        H  0.44636104  0.78274263  0.15560879     0.35200
H582        H  0.44674255  0.78228265  0.10900454     0.40300
H583        H  0.31838017  0.67125439  0.15185520     0.40000
H584        H  0.31945134  0.66866227  0.10580390     0.34900
C585        C  0.26266979  0.59229968  0.10888925    -0.26900
C586        C  0.25764795  0.60603488  0.13831689    -0.15000
C587        C  0.27555599  0.61354668  0.16994395     0.35700
C588        C  0.29994479  0.61031413  0.16905312    -0.26300
C589        C  0.30768128  0.60143176  0.13684567    -0.15600
C590        C  0.28786156  0.59058377  0.10720961     0.36800
N591        N  0.29332508  0.57908474  0.07443768    -0.89800
H592        H  0.24743509  0.58392496  0.08632253     0.17900
H593        H  0.31495748  0.61838599  0.19203353     0.17900
N594        N  0.27115544  0.62634344  0.20227581    -0.88800
H595        H  0.27602994  0.55740120  0.07152963     0.35200
H596        H  0.31223301  0.57817300  0.07697658     0.40300
H597        H  0.25335813  0.62902783  0.19977905     0.40000
H598        H  0.28957165  0.64734891  0.20554114     0.34900
C599        C  0.23146889  0.61989429  0.98071455    -0.26900
C600        C  0.20926494  0.62067423  0.96161083    -0.15000
C601        C  0.18874770  0.62408712  0.98215746     0.35700
C602        C  0.19023163  0.62503475  0.02093186    -0.26300
C603        C  0.21208182  0.62323688  0.04005133    -0.15600
C604        C  0.23310841  0.62100293  0.01901724     0.36800
N605        N  0.25618435  0.61928049  0.03579752    -0.89800
H606        H  0.24811883  0.61830471  0.96611168     0.17900
H607        H  0.17467807  0.62816462  0.03618086     0.17900
N608        N  0.16727410  0.62785580  0.96382419    -0.88800
H609        H  0.27615495  0.63713642  0.02678893     0.35200
H610        H  0.25501875  0.60025699  0.02630742     0.40300
H611        H  0.17850629  0.64753859  0.94921543     0.40000
H612        H  0.15389348  0.63010421  0.98285449     0.34900
C613        C  0.29636430  0.73254115  0.91119569    -0.26900
C614        C  0.31183573  0.74661512  0.87898968    -0.15000
C615        C  0.30135120  0.73190835  0.84498112     0.35700
C616        C  0.27637736  0.70355658  0.84404526    -0.26300
C617        C  0.26199777  0.68909415  0.87646201    -0.15600
C618        C  0.27167244  0.70401883  0.91021521     0.36800
N619        N  0.25655861  0.69021371  0.94363219    -0.89800
H620        H  0.30408824  0.74325785  0.93751185     0.17900
H621        H  0.26929060  0.69211783  0.81801459     0.17900
N622        N  0.31726521  0.74452670  0.81162494    -0.88800
H623        H  0.24954751  0.70322691  0.95575504     0.35200
H624        H  0.27142615  0.68952945  0.96143595     0.40300
H625        H  0.30315612  0.74573777  0.79301594     0.40000
H626        H  0.32346609  0.73048953  0.80068408     0.34900
C627        C  0.40983325  0.82169663  0.98236786    -0.26900
C628        C  0.38277443  0.81195966  0.96546165    -0.15000
C629        C  0.35801832  0.80469247  0.98704081     0.35700
C630        C  0.36016481  0.80493594  0.02543182    -0.26300
C631        C  0.38671822  0.81283428  0.04240595    -0.15600
C632        C  0.41204929  0.82219155  0.02090435     0.36800
N633        N  0.43952815  0.83109978  0.03821853    -0.89800
H634        H  0.42885189  0.82753252  0.96547902     0.17900
H635        H  0.34093412  0.79834790  0.04223499     0.17900
N636        N  0.33073999  0.79660760  0.96978510    -0.88800
H637        H  0.45601683  0.83741159  0.01847062     0.35200
H638        H  0.43733770  0.81284862  0.05165812     0.40300
H639        H  0.33390364  0.81484153  0.95526072     0.40000
H640        H  0.31460039  0.79179862  0.98955874     0.34900
C641        C  0.41279280  0.71960134  0.88003571    -0.26900
C642        C  0.38549657  0.69303220  0.87852641    -0.15000
C643        C  0.35991355  0.69432773  0.87779451     0.35700
C644        C  0.36181148  0.72122239  0.87918801    -0.26300
C645        C  0.38863970  0.74778205  0.88135253    -0.15600
C646        C  0.41471468  0.74697300  0.88203918     0.36800
N647        N  0.44318338  0.77299622  0.88600969    -0.89800
H648        H  0.43271130  0.71906779  0.88105457     0.17900
H649        H  0.34162478  0.72097956  0.87840068     0.17900
N650        N  0.33156648  0.66841611  0.87471302    -0.88800
H651        H  0.45207402  0.77110019  0.91056107     0.35200
H652        H  0.44176721  0.79158219  0.88885634     0.40300
H653        H  0.32155738  0.67041749  0.85128071     0.40000
H654        H  0.31903492  0.66730963  0.89748469     0.34900
C655        C  0.29201389  0.59262666  0.90099006    -0.26900
C656        C  0.31124550  0.60339439  0.87093702    -0.15000
C657        C  0.30213659  0.61003033  0.83798124     0.35700
C658        C  0.27571652  0.60976280  0.83768656    -0.26300
C659        C  0.25818225  0.60228498  0.86931771    -0.15600
C660        C  0.26492266  0.59070194  0.89988244     0.36800
N661        N  0.24493445  0.57702227  0.93008386    -0.89800
H662        H  0.29849614  0.58653077  0.92589865     0.17900
H663        H  0.27009128  0.61778854  0.81380737     0.17900
N664        N  0.32102358  0.61987517  0.80625203    -0.88800
H665        H  0.24042384  0.55559747  0.93218638     0.35200
H666        H  0.22482889  0.57494827  0.92457120     0.40300
H667        H  0.33983934  0.63992629  0.81271541     0.40000
H668        H  0.31104735  0.62391387  0.78441280     0.34900
C669        C  0.38242962  0.65243726  0.98507340    -0.26900
C670        C  0.37919867  0.62819002  0.96588584    -0.15000
C671        C  0.37566888  0.60394830  0.98572964     0.35700
C672        C  0.37598461  0.60476778  0.02436507    -0.26300
C673        C  0.37902343  0.62897194  0.04352206    -0.15600
C674        C  0.38255422  0.65320080  0.02362481     0.36800
N675        N  0.38680774  0.67872706  0.04253710    -0.89800
H676        H  0.38534315  0.67112341  0.96985336     0.17900
H677        H  0.37286760  0.58603027  0.03965379     0.17900
N678        N  0.37082213  0.57825963  0.96666732    -0.88800
H679        H  0.38863270  0.69439705  0.02390734     0.35200
H680        H  0.40681275  0.68813677  0.05630162     0.40300
H681        H  0.35085740  0.56928263  0.95287733     0.40000
H682        H  0.36854909  0.56239381  0.98529093     0.34900
C683        C  0.70575529  0.43547101  0.08524480    -0.26900
C684        C  0.71898431  0.43697785  0.11910621    -0.15000
C685        C  0.70623262  0.44069702  0.15139577     0.35700
C686        C  0.67996477  0.44037226  0.14914730    -0.26300
C687        C  0.66538617  0.43597889  0.11560599    -0.15600
C688        C  0.67964013  0.43553710  0.08293240     0.36800
N689        N  0.66818057  0.43476069  0.04703837    -0.89800
H690        H  0.71532458  0.43344056  0.06005839     0.17900
H691        H  0.66959025  0.44093246  0.17450756     0.17900
N692        N  0.71772886  0.44244227  0.18731455    -0.88800
H693        H  0.68460949  0.45249462  0.03216922     0.35200
H694        H  0.65109618  0.43868862  0.04869088     0.40300
H695        H  0.73778196  0.46210279  0.18979258     0.40000
H696        H  0.72029919  0.42463950  0.19133418     0.34900
C697        C  0.56137112  0.32339969  0.12051442    -0.26900
C698        C  0.58726886  0.34955827  0.13016771    -0.15000
C699        C  0.61153381  0.34833138  0.14201389     0.35700
C700        C  0.61026558  0.32163922  0.14236331    -0.26300
C701        C  0.58510260  0.29570750  0.13121183    -0.15600
C702        C  0.56005491  0.29642732  0.12104824     0.36800
N703        N  0.53345373  0.27038112  0.11039202    -0.89800
H704        H  0.54251979  0.32408163  0.11143044     0.17900
H705        H  0.62946848  0.32135874  0.15063049     0.17900
N706        N  0.63781239  0.37430240  0.15340608    -0.88800
H707        H  0.52637056  0.25560497  0.13226697     0.35200
H708        H  0.53792961  0.26101261  0.08809487     0.40300
H709        H  0.64213323  0.37135465  0.18047933     0.40000
H710        H  0.65499480  0.37671885  0.13691281     0.34900
C711        C  0.67475726  0.31071627  0.15780070    -0.26900
C712        C  0.66365830  0.29565525  0.12458485    -0.15000
C713        C  0.67925580  0.30821006  0.09167439     0.35700
C714        C  0.70465852  0.33628884  0.09236553    -0.26300
C715        C  0.71472517  0.35213068  0.12522709    -0.15600
C716        C  0.69978348  0.33911944  0.15840571     0.36800
N717        N  0.70887645  0.35544127  0.19215724    -0.89800
H718        H  0.66242838  0.30134036  0.18292358     0.17900
H719        H  0.71637074  0.34612861  0.06700308     0.17900
N720        N  0.66893529  0.29256991  0.05759388    -0.88800
H721        H  0.69550399  0.34274714  0.21395382     0.35200
H722        H  0.70573390  0.37300938  0.18941735     0.40300
H723        H  0.67116511  0.27439360  0.05931708     0.40000
H724        H  0.68226857  0.30524812  0.03575997     0.34900
C725        C  0.78295180  0.40266568  0.97828245    -0.26900
C726        C  0.77437611  0.41941109  0.95877624    -0.15000
C727        C  0.76591701  0.43664288  0.97804816     0.35700
C728        C  0.76615987  0.43674649  0.01666020    -0.26300
C729        C  0.77385906  0.41932809  0.03637222    -0.15600
C730        C  0.78235252  0.40197493  0.01686490     0.36800
N731        N  0.78947753  0.38269729  0.03494097    -0.89800
H732        H  0.78879219  0.38889047  0.96337292     0.17900
H733        H  0.75999690  0.45025153  0.03150712     0.17900
N734        N  0.75646353  0.45339403  0.95828046    -0.88800
H735        H  0.77395265  0.36130314  0.02692062     0.35200
H736        H  0.78771121  0.38329902  0.06341381     0.40300
H737        H  0.77432882  0.46925769  0.94301361     0.40000
H738        H  0.75060687  0.46462549  0.97649556     0.34900
C739        C  0.83501894  0.45778882  0.83029105    -0.26900
C740        C  0.80716489  0.43283784  0.82336781    -0.15000
C741        C  0.80140392  0.42216330  0.78692908     0.35700
C742        C  0.82402039  0.43337250  0.76060813    -0.26300
C743        C  0.85299790  0.45607763  0.76856382    -0.15600
C744        C  0.85739896  0.46991121  0.80349099     0.36800
N745        N  0.88316286  0.49743416  0.81218665    -0.89800
H746        H  0.83943169  0.46915732  0.85622147     0.17900
H747        H  0.81815337  0.42474036  0.73302618     0.17900
N748        N  0.77227190  0.40046278  0.77589297    -0.94800
H749        H  0.88850382  0.51204144  0.79039250     0.35200
H750        H  0.90035315  0.49435711  0.81813063     0.40300
H751        H  0.77265344  0.38249416  0.76534445     0.40000
H752        H  0.76607851  0.40922864  0.75475105     0.34900
C753        C  0.57528359  0.20914651  0.79354207    -0.26900
C754        C  0.56970955  0.20098336  0.83084195    -0.15000
C755        C  0.55487569  0.17054939  0.83892392     0.35700
C756        C  0.54642432  0.14992326  0.81041750    -0.26300
C757        C  0.55196453  0.15825206  0.77328924    -0.15600
C758        C  0.56668939  0.18851268  0.76519245     0.36800
N759        N  0.57281453  0.19854723  0.72791701    -0.89800
H760        H  0.58666086  0.23212852  0.78616158     0.17900
H761        H  0.53509932  0.12724465  0.81834830     0.17900
N762        N  0.54796504  0.15968580  0.87561851    -0.88800
H763        H  0.56274373  0.21042262  0.72279315     0.35200
H764        H  0.59544992  0.21276502  0.72508867     0.40300
H765        H  0.55791078  0.14768901  0.88074026     0.40000
H766        H  0.52526644  0.14551206  0.87774289     0.34900
C767        C  0.60239733  0.22860403  0.97905187    -0.26900
C768        C  0.58930559  0.24280759  0.96303153    -0.15000
C769        C  0.57638402  0.25413473  0.98620598     0.35700
C770        C  0.57772604  0.25218578  0.02423782    -0.26300
C771        C  0.59086816  0.23823841  0.04031702    -0.15600
C772        C  0.60320588  0.22610122  0.01736539     0.36800
N773        N  0.61728736  0.21186696  0.03208153    -0.89800
H774        H  0.61226701  0.21961058  0.96164205     0.17900
H775        H  0.56833779  0.26171546  0.04146804     0.17900
N776        N  0.56041232  0.26641073  0.97200670    -0.88800
H777        H  0.60186276  0.19370427  0.04721680     0.35200
H778        H  0.63382606  0.22630441  0.04988820     0.40300
H779        H  0.54349976  0.25024315  0.95604011     0.40000
H780        H  0.57446014  0.28440471  0.95568380     0.34900
C781        C  0.70268392  0.33082798  0.84393945    -0.26900
C782        C  0.71687275  0.34275960  0.87752434    -0.15000
C783        C  0.70289149  0.32809069  0.91046843     0.35700
C784        C  0.67389152  0.30386198  0.90946571    -0.26300
C785        C  0.65876652  0.29379009  0.87614868    -0.15600
C786        C  0.67364537  0.30685384  0.84305838     0.36800
N787        N  0.65847682  0.29763585  0.80875793    -0.89800
H788        H  0.71286825  0.34208381  0.81848796     0.17900
H789        H  0.66267694  0.29343614  0.93486789     0.17900
N790        N  0.71771890  0.33881173  0.94493569    -0.88800
H791        H  0.65871890  0.31552685  0.79700082     0.35200
H792        H  0.67004802  0.29162013  0.79136908     0.40300
H793        H  0.73606523  0.33674643  0.94442743     0.40000
H794        H  0.70442651  0.32581037  0.96660459     0.34900
C795        C  0.65924174  0.39742278  0.87961380    -0.26900
C796        C  0.66109029  0.42429886  0.87687449    -0.15000
C797        C  0.68907252  0.44976498  0.87160004     0.35700
C798        C  0.71420929  0.44739437  0.86943064    -0.26300
C799        C  0.71165304  0.41992855  0.87233892    -0.15600
C800        C  0.68353976  0.39489095  0.87656313     0.36800
N801        N  0.67891558  0.36618376  0.87664514    -0.89800
H802        H  0.63847677  0.37729683  0.88293027     0.17900
H803        H  0.73568217  0.46700941  0.86641129     0.17900
N804        N  0.69226451  0.47794892  0.86977141    -0.88800
H805        H  0.66477618  0.35440027  0.85505065     0.35200
H806        H  0.66835710  0.35595362  0.90121479     0.40300
H807        H  0.70233499  0.48754884  0.84475206     0.40000
H808        H  0.70630491  0.49088209  0.89086297     0.34900
C809        C  0.59516817  0.31735386  0.84002806    -0.26900
C810        C  0.57700633  0.29585329  0.86562196    -0.15000
C811        C  0.55651547  0.29942757  0.88574940     0.35700
C812        C  0.55849986  0.32667864  0.88526966    -0.26300
C813        C  0.57851567  0.34915797  0.86208422    -0.15600
C814        C  0.59530983  0.34358343  0.83724184     0.36800
N815        N  0.61360686  0.36511229  0.81051098    -0.89800
H816        H  0.60998343  0.31419479  0.82306407     0.17900
H817        H  0.54476978  0.33057294  0.90339018     0.17900
N818        N  0.53387839  0.27551045  0.90649896    -0.88800
H819        H  0.60671484  0.35566344  0.78453442     0.35200
H820        H  0.63508077  0.37005272  0.81389840     0.40300
H821        H  0.52054741  0.25892848  0.88794687     0.40000
H822        H  0.52057128  0.28173782  0.91965933     0.34900
C823        C  0.57768331  0.38555569  0.97742186    -0.26900
C824        C  0.58795497  0.41219573  0.95892121    -0.15000
C825        C  0.59741322  0.43797552  0.97966053     0.35700
C826        C  0.59656485  0.43649699  0.01828825    -0.26300
C827        C  0.58752203  0.41007577  0.03658096    -0.15600
C828        C  0.57754480  0.38434877  0.01594473     0.36800
N829        N  0.56714455  0.35693309  0.03405945    -0.89800
H830        H  0.57020093  0.36560089  0.96187395     0.17900
H831        H  0.60456374  0.45635687  0.03422977     0.17900
N832        N  0.60927123  0.46576279  0.96159392    -0.88800
H833        H  0.57980983  0.34845462  0.02508991     0.35200
H834        H  0.54552459  0.34248683  0.02587550     0.40300
H835        H  0.62854788  0.47037123  0.94818802     0.40000
H836        H  0.61523443  0.48249322  0.98079563     0.34900
C837        C  0.66358300  0.68145160  0.52362710    -0.26900
C838        C  0.66686099  0.66974652  0.49068590    -0.15000
C839        C  0.65878728  0.67698936  0.45730708     0.35700
C840        C  0.64364218  0.69191323  0.45832659    -0.26300
C841        C  0.63654101  0.69970431  0.49192502    -0.15600
C842        C  0.64859053  0.69640047  0.52451437     0.36800
N843        N  0.64418429  0.70660096  0.55893141    -0.89800
H844        H  0.67064676  0.67706647  0.54933669     0.17900
H845        H  0.63531421  0.69528359  0.43299114     0.17900
N846        N  0.66406794  0.66742933  0.42277533    -0.88800
H847        H  0.66474139  0.72112825  0.57022004     0.35200
H848        H  0.63311365  0.68865741  0.57659509     0.40300
H849        H  0.68676492  0.67821496  0.41911038     0.40000
H850        H  0.65605248  0.67388954  0.40103527     0.34900
C851        C  0.58276461  0.51297649  0.61784273    -0.26900
C852        C  0.59144013  0.52528144  0.65294865    -0.15000
C853        C  0.61817864  0.55242077  0.65678711     0.35700
C854        C  0.63586195  0.56595421  0.62578741    -0.26300
C855        C  0.62732363  0.55331544  0.59069447    -0.15600
C856        C  0.60014594  0.52675811  0.58683774     0.36800
N857        N  0.58954236  0.51402944  0.55136597    -0.89800
H858        H  0.56218055  0.49242255  0.61429487     0.17900
H859        H  0.65624453  0.58672485  0.62914701     0.17900
N860        N  0.62721513  0.56755519  0.69120873    -0.88800
H861        H  0.56953624  0.51256135  0.54704127     0.35200
H862        H  0.58569486  0.49279120  0.55152565     0.40300
H863        H  0.63124081  0.55527533  0.70969006     0.40000
H864        H  0.61026869  0.56986641  0.70149011     0.34900
C865        C  0.58327753  0.45782224  0.76277768    -0.26900
C866        C  0.56447701  0.46799790  0.77189785    -0.15000
C867        C  0.55369911  0.46341783  0.80843759     0.35700
C868        C  0.56361655  0.45145419  0.83475306    -0.26300
C869        C  0.58343818  0.44251102  0.82588363    -0.15600
C870        C  0.59255281  0.44518215  0.78884349     0.36800
N871        N  0.61064314  0.43425204  0.77710105    -0.89800
H872        H  0.59036696  0.45893017  0.73458942     0.17900
H873        H  0.55387759  0.44772886  0.86166221     0.17900
N874        N  0.53110423  0.46866547  0.81899806    -0.88800
H875        H  0.62972512  0.45156823  0.76536417     0.35200
H876        H  0.59943910  0.41847690  0.75675498     0.40300
H877        H  0.51303130  0.44895049  0.82819192     0.40000
H878        H  0.53878172  0.48346140  0.84093171     0.34900
C879        C  0.44624441  0.24060261  0.48356820    -0.26900
C880        C  0.42328403  0.21607561  0.50155733    -0.15000
C881        C  0.40113227  0.21889466  0.51883605     0.35700
C882        C  0.40298262  0.24620167  0.51849859    -0.26300
C883        C  0.42606931  0.27077246  0.50058537    -0.15600
C884        C  0.44785215  0.26753701  0.48268359     0.36800
N885        N  0.47225733  0.29118858  0.46373842    -0.89800
H886        H  0.46342362  0.23898970  0.47005168     0.17900
H887        H  0.38609785  0.24821355  0.53214301     0.17900
N888        N  0.37689432  0.19419490  0.53684606    -0.88800
H889        H  0.48405380  0.30846305  0.48212765     0.35200
H890        H  0.46444220  0.29803248  0.44220522     0.40300
H891        H  0.36444509  0.17886341  0.51655568     0.40000
H892        H  0.36313277  0.20018930  0.54921707     0.34900
C893        C  0.46706989  0.42081105  0.61128562    -0.26900
C894        C  0.47737859  0.40405650  0.59492957    -0.15000
C895        C  0.50236859  0.40547298  0.60967905     0.35700
C896        C  0.51727061  0.42447605  0.63908768    -0.26300
C897        C  0.50746255  0.44187537  0.65460415    -0.15600
C898        C  0.48151185  0.43925605  0.64117241     0.36800
N899        N  0.46842125  0.45374359  0.65844507    -0.89800
H900        H  0.44735989  0.41929826  0.60108809     0.17900
H901        H  0.53694364  0.42600105  0.64946749     0.17900
N902        N  0.51306589  0.38811263  0.59452859    -0.88800
H903        H  0.48246465  0.47634221  0.65609711     0.35200
H904        H  0.46529798  0.44811456  0.68625202     0.40300
H905        H  0.51326870  0.37493598  0.61547395     0.40000
H906        H  0.53466620  0.40222572  0.58579744     0.34900
C907        C  0.23737984  0.48311955  0.49905811    -0.26900
C908        C  0.23542372  0.45594486  0.50031446    -0.15000
C909        C  0.20733090  0.43027019  0.50231750     0.35700
C910        C  0.18202384  0.43219729  0.50131644    -0.26300
C911        C  0.18407833  0.45945057  0.49917542    -0.15600
C912        C  0.21225635  0.48512561  0.49920598     0.36800
N913        N  0.21563939  0.51345382  0.50030302    -0.89800
H914        H  0.25868580  0.50319363  0.49862163     0.17900
H915        H  0.16066774  0.41221027  0.50214605     0.17900
N916        N  0.20429346  0.40217690  0.50507571    -0.88800
H917        H  0.22805339  0.52533731  0.47747579     0.35200
H918        H  0.22743088  0.52424249  0.52392616     0.40300
H919        H  0.19181509  0.38943579  0.48284242     0.40000
H920        H  0.19263759  0.39217506  0.52916315     0.34900
C921        C  0.33307648  0.37893969  0.47253589    -0.26900
C922        C  0.32708437  0.38809329  0.50590858    -0.15000
C923        C  0.33445496  0.37987987  0.53900368     0.35700
C924        C  0.34999119  0.36534372  0.53808655    -0.26300
C925        C  0.35861124  0.35886363  0.50463421    -0.15600
C926        C  0.34866282  0.36440667  0.47149083     0.36800
N927        N  0.35581521  0.35681656  0.43673912    -0.89800
H928        H  0.32721960  0.38475602  0.44692827     0.17900
H929        H  0.35703265  0.36093665  0.56379541     0.17900
N930        N  0.32754660  0.38751763  0.57370619    -0.88800
H931        H  0.34761812  0.36311956  0.41504402     0.35200
H932        H  0.34513523  0.33398671  0.43565096     0.40300
H933        H  0.34711338  0.40061935  0.58793808     0.40000
H934        H  0.31476989  0.36825072  0.58870435     0.34900
C935        C  0.47045175  0.52238156  0.73463237    -0.26900
C936        C  0.48232152  0.54931171  0.71634702    -0.15000
C937        C  0.51051900  0.56201394  0.70030732     0.35700
C938        C  0.52546341  0.54698918  0.70122598    -0.26300
C939        C  0.51340908  0.51990015  0.71901611    -0.15600
C940        C  0.48581622  0.50769793  0.73626021     0.36800
N941        N  0.47305778  0.48011029  0.75474353    -0.89800
H942        H  0.44901460  0.51256375  0.74740182     0.17900
H943        H  0.54688518  0.55674873  0.68841315     0.17900
N944        N  0.52504514  0.59063486  0.68429151    -0.88800
H945        H  0.45274850  0.46575604  0.74275333     0.35200
H946        H  0.46932185  0.48327641  0.78209557     0.40300
H947        H  0.52586058  0.60537701  0.70384834     0.40000
H948        H  0.51296246  0.59042529  0.66181508     0.34900
C949        C  0.43698479  0.59681383  0.80776445    -0.26900
C950        C  0.42945716  0.59842008  0.77125158    -0.15000
C951        C  0.41205069  0.61071021  0.76537498     0.35700
C952        C  0.40162830  0.61944059  0.79517460    -0.26300
C953        C  0.40765322  0.61645907  0.83205544    -0.15600
C954        C  0.42657600  0.60546988  0.83778713     0.36800
N955        N  0.43629957  0.60266830  0.87304970    -0.89800
H956        H  0.45117904  0.58879063  0.81394435     0.17900
H957        H  0.38788188  0.62820666  0.78923378     0.17900
N958        N  0.40453608  0.61420247  0.72885665    -0.88800
H959        H  0.41845503  0.58663233  0.88810124     0.35200
H960        H  0.44731714  0.62310504  0.88596122     0.40300
H961        H  0.41219332  0.63637843  0.72480623     0.40000
H962        H  0.38169469  0.60249533  0.72681242     0.34900
C963        C  0.51110173  0.64947135  0.65590207    -0.26900
C964        C  0.48394933  0.62366782  0.64954278    -0.15000
C965        C  0.47347291  0.61644577  0.61336789     0.35700
C966        C  0.49013895  0.63460505  0.58429889    -0.26300
C967        C  0.51752412  0.66015331  0.59013830    -0.15600
C968        C  0.52816456  0.66778075  0.62651589     0.36800
N969        N  0.55616121  0.69371241  0.63355503    -0.89800
H970        H  0.51924162  0.65499320  0.68374750     0.17900
H971        H  0.48150659  0.62831080  0.55673916     0.17900
N972        N  0.44554241  0.59081224  0.60591543    -0.88800
H973        H  0.56099182  0.69562145  0.66157491     0.35200
H974        H  0.55457652  0.71174944  0.62668076     0.40300
H975        H  0.43251642  0.59726623  0.59281306     0.40000
H976        H  0.44873312  0.57754705  0.58777811     0.34900
C977        C  0.35678281  0.51981085  0.61611805    -0.26900
C978        C  0.36437100  0.50308798  0.59441151    -0.15000
C979        C  0.38929879  0.50198866  0.60389505     0.35700
C980        C  0.40660344  0.51842668  0.63397249    -0.26300
C981        C  0.39998173  0.53643672  0.65472204    -0.15600
C982        C  0.37452208  0.53685211  0.64555019     0.36800
N983        N  0.36723192  0.55561000  0.66463193    -0.89800
H984        H  0.33766386  0.52077359  0.60917267     0.17900
H985        H  0.42549850  0.51716930  0.64108330     0.17900
N986        N  0.39692980  0.48407069  0.58305261    -0.88800
H987        H  0.36669786  0.56985590  0.64557350     0.35200
H988        H  0.34620464  0.54260763  0.67575651     0.40300
H989        H  0.38015421  0.46223794  0.58675051     0.40000
H990        H  0.41604271  0.48594177  0.59323824     0.34900
C991        C  0.42029045  0.57986405  0.19570523    -0.26900
C992        C  0.42480550  0.59128057  0.23152761    -0.15000
C993        C  0.41543464  0.61096340  0.23944482     0.35700
C994        C  0.40516021  0.62102434  0.21138020    -0.26300
C995        C  0.40272274  0.61151941  0.17470808    -0.15600
C996        C  0.40877887  0.58892327  0.16779722     0.36800
N997        N  0.40152273  0.57273740  0.13415787    -0.89800
H998        H  0.42410591  0.56244150  0.18929138     0.17900
H999        H  0.39763528  0.63552304  0.21912982     0.17900
N1000       N  0.41517658  0.62009152  0.27641725    -0.88800
H1001       H  0.41737180  0.58489011  0.11427620     0.35200
H1002       H  0.38046177  0.56670670  0.12579369     0.40300
H1003       H  0.39366143  0.61373308  0.28328218     0.40000
H1004       H  0.42801133  0.64295635  0.27737060     0.34900
C1005       C  0.47628730  0.60353628  0.38445071    -0.26900
C1006       C  0.48456514  0.61342228  0.34823835    -0.15000
C1007       C  0.50971123  0.64139625  0.34210395     0.35700
C1008       C  0.52512306  0.65927020  0.37232159    -0.26300
C1009       C  0.51653105  0.64951286  0.40858363    -0.15600
C1010       C  0.49182205  0.62105002  0.41446475     0.36800
N1011       N  0.48122637  0.60954956  0.45047672    -0.89800
H1012       H  0.45704553  0.58219382  0.38971730     0.17900
H1013       H  0.54421865  0.68082773  0.36750508     0.17900
N1014       N  0.51984249  0.65136934  0.30534074    -0.88800
H1015       H  0.47688514  0.62386918  0.46467121     0.35200
H1016       H  0.49730232  0.60786640  0.46432153     0.40300
H1017       H  0.52597538  0.63744719  0.29383857     0.40000
H1018       H  0.53862744  0.67236454  0.30559970     0.34900
C1019       C  0.37443484  0.53161303  0.40461892    -0.26900
C1020       C  0.36320922  0.50151001  0.40858483    -0.15000
C1021       C  0.36995415  0.48676447  0.38164914     0.35700
C1022       C  0.38761890  0.50250772  0.35132215    -0.26300
C1023       C  0.39848809  0.53247447  0.34748219    -0.15600
C1024       C  0.39185201  0.54719743  0.37421915     0.36800
N1025       N  0.40363764  0.57814116  0.37093118    -0.89800
H1026       H  0.36950875  0.54302751  0.42528880     0.17900
H1027       H  0.39328189  0.49152080  0.33086920     0.17900
N1028       N  0.35957678  0.45615601  0.38563829    -0.88800
H1029       H  0.39760232  0.58590899  0.39356822     0.35200
H1030       H  0.39413799  0.58144250  0.34794012     0.40300
H1031       H  0.36955969  0.45386047  0.40888972     0.40000
H1032       H  0.36629704  0.44869188  0.36334964     0.34900
C1033       C  0.50174813  0.55047774  0.30155948    -0.26900
C1034       C  0.47757689  0.54000721  0.27812357    -0.15000
C1035       C  0.47075092  0.51655828  0.25426346     0.35700
C1036       C  0.48762224  0.50345320  0.25505047    -0.26300
C1037       C  0.51113884  0.51322294  0.27956159    -0.15600
C1038       C  0.51866713  0.53747638  0.30247126     0.36800
N1039       N  0.54351541  0.54893815  0.32648149    -0.89800
H1040       H  0.50748236  0.56896299  0.31934744     0.17900
H1041       H  0.48155147  0.48479552  0.23744521     0.17900
N1042       N  0.44594547  0.50510886  0.23046147    -0.88800
H1043       H  0.54583672  0.56658083  0.34177081     0.35200
H1044       H  0.56227268  0.55713271  0.31006253     0.40300
H1045       H  0.43170698  0.48302107  0.23692477     0.40000
H1046       H  0.45329285  0.50631547  0.20348979     0.34900
C1047       C  0.58086801  0.42990336  0.20823297    -0.26900
C1048       C  0.57849908  0.43573393  0.17111470    -0.15000
C1049       C  0.57003645  0.45634401  0.16412851     0.35700
C1050       C  0.56090054  0.46726511  0.19320835    -0.26300
C1051       C  0.56119807  0.45955344  0.23013120    -0.15600
C1052       C  0.57259694  0.44148662  0.23727005     0.36800
N1053       N  0.57602920  0.43483987  0.27427936    -0.89800
H1054       H  0.58960677  0.41630406  0.21505954     0.17900
H1055       H  0.55476288  0.48282416  0.18615287     0.17900
N1056       N  0.57226478  0.46796725  0.12815288    -0.88800
H1057       H  0.59812353  0.44211719  0.27830632     0.35200
H1058       H  0.56388524  0.41208655  0.27744725     0.40300
H1059       H  0.55160881  0.46384334  0.12073138     0.40000
H1060       H  0.58666900  0.49065865  0.12921709     0.34900
C1061       C  0.57542715  0.51094197  0.38526878    -0.26900
C1062       C  0.58630165  0.51825979  0.34919726    -0.15000
C1063       C  0.61500837  0.54226854  0.34362862     0.35700
C1064       C  0.63243377  0.55779895  0.37396525    -0.26300
C1065       C  0.62149335  0.55046404  0.41001021    -0.15600
C1066       C  0.59239431  0.52675238  0.41547758     0.36800
N1067       N  0.57950304  0.51766218  0.45126331    -0.89800
H1068       H  0.55352628  0.49252258  0.39032695     0.17900
H1069       H  0.65448619  0.57612025  0.36916527     0.17900
N1070       N  0.62624878  0.55167708  0.30726028    -0.88800
H1071       H  0.57833529  0.53468662  0.46349951     0.35200
H1072       H  0.59263520  0.51283915  0.46713763     0.40300
H1073       H  0.64541488  0.55117189  0.30453913     0.40000
H1074       H  0.63180041  0.57339634  0.30433831     0.34900
C1075       C  0.52008786  0.43062267  0.37459040    -0.26900
C1076       C  0.50406031  0.43596479  0.34889873    -0.15000
C1077       C  0.47402510  0.42464096  0.35510484     0.35700
C1078       C  0.46042917  0.40769230  0.38648038    -0.26300
C1079       C  0.47648343  0.40249467  0.41255975    -0.15600
C1080       C  0.50666264  0.41425454  0.40647299     0.36800
N1081       N  0.52369574  0.40929973  0.43223995    -0.89800
H1082       H  0.54329867  0.43961937  0.37012661     0.17900
H1083       H  0.43726834  0.39899415  0.39083394     0.17900
N1084       N  0.45695693  0.43013849  0.33003638    -0.88800
H1085       H  0.54084588  0.42967251  0.44121338     0.35200
H1086       H  0.53283227  0.39877690  0.41847695     0.40300
H1087       H  0.45822780  0.42235487  0.30415486     0.40000
H1088       H  0.46625577  0.45278443  0.32815725     0.34900
C1089       C  0.46506352  0.00436924  0.74912198    -0.26900
C1090       C  0.47442881  0.99032356  0.72501867    -0.15000
C1091       C  0.49821909  0.00749483  0.70121310     0.35700
C1092       C  0.51155551  0.03804990  0.70099912    -0.26300
C1093       C  0.50178399  0.05209340  0.72435547    -0.15600
C1094       C  0.47840276  0.03502929  0.74882707     0.36800
N1095       N  0.46729516  0.04857130  0.77225587    -0.89800
H1096       H  0.44655596  0.99143473  0.76722663     0.17900
H1097       H  0.52984359  0.05088395  0.68254156     0.17900
N1098       N  0.50926305  0.99402252  0.67754603    -0.88800
H1099       H  0.46870717  0.04317683  0.79940608     0.35200
H1100       H  0.44516145  0.03964773  0.76613026     0.40300
H1101       H  0.53134011  0.00271655  0.68378335     0.40000
H1102       H  0.50804339  0.99971473  0.65047589     0.34900
C1103       C  0.37201870  0.89341635  0.64663919    -0.26900
C1104       C  0.39369986  0.92078739  0.66049774    -0.15000
C1105       C  0.39777947  0.94652349  0.64418548     0.35700
C1106       C  0.38070835  0.94433612  0.61378735    -0.26300
C1107       C  0.35951260  0.91701222  0.59932457    -0.15600
C1108       C  0.35505096  0.89120996  0.61604643     0.36800
N1109       N  0.33417534  0.86291893  0.60118405    -0.89800
H1110       H  0.36929648  0.87365724  0.65858686     0.17900
H1111       H  0.38408428  0.96416078  0.60119073     0.17900
N1112       N  0.41930637  0.97480998  0.65843142    -0.88800
H1113       H  0.33336539  0.84626627  0.61699125     0.35200
H1114       H  0.34170861  0.86147845  0.57517403     0.40300
H1115       H  0.41294733  0.97634919  0.68512759     0.40000
H1116       H  0.41972051  0.99151618  0.64320029     0.34900
C1117       C  0.39369453  0.87722661  0.79404156    -0.26900
C1118       C  0.42071203  0.88654662  0.77666506    -0.15000
C1119       C  0.43894958  0.87774182  0.79262168     0.35700
C1120       C  0.42752261  0.85532891  0.81910246    -0.26300
C1121       C  0.39876693  0.84284796  0.83262605    -0.15600
C1122       C  0.38312972  0.85654555  0.82271277     0.36800
N1123       N  0.35679780  0.84981934  0.84196377    -0.89800
H1124       H  0.38091967  0.88657575  0.78596100     0.17900
H1125       H  0.44167052  0.84829738  0.82974106     0.17900
N1126       N  0.46935003  0.89203186  0.78298150    -0.88800
H1127       H  0.34794767  0.86154123  0.83108594     0.35200
H1128       H  0.36252665  0.85689575  0.86908625     0.40300
H1129       H  0.48161012  0.90129913  0.80681274     0.40000
H1130       H  0.47357839  0.87615085  0.77353352     0.34900
C1131       C  0.51201355  0.03846260  0.31582576    -0.26900
C1132       C  0.50498544  0.05279149  0.28939745    -0.15000
C1133       C  0.48260881  0.03536390  0.26395710     0.35700
C1134       C  0.46874640  0.00458123  0.26463239    -0.26300
C1135       C  0.47632495  0.99029446  0.29057294    -0.15600
C1136       C  0.49837330  0.00778363  0.31637753     0.36800
N1137       N  0.50798426  0.99481384  0.34256615    -0.89800
H1138       H  0.52876733  0.05107802  0.33595279     0.17900
H1139       H  0.45141090  0.99177220  0.24515572     0.17900
N1140       N  0.47297178  0.04865025  0.23821341    -0.88800
H1141       H  0.50480841  0.00061282  0.36885619     0.35200
H1142       H  0.53048176  0.00385857  0.33876079     0.40300
H1143       H  0.45063417  0.04012921  0.24268049     0.40000
H1144       H  0.47555843  0.04261658  0.21178357     0.34900
C1145       C  0.51472520  0.13452384  0.38850397    -0.26900
C1146       C  0.50110062  0.12606142  0.35413071    -0.15000
C1147       C  0.47216749  0.11988602  0.35053176     0.35700
C1148       C  0.45796206  0.12330970  0.38084289    -0.26300
C1149       C  0.47188368  0.13263315  0.41510960    -0.15600
C1150       C  0.50051994  0.13793327  0.41888740     0.36800
N1151       N  0.51532634  0.14666197  0.45346689    -0.89800
H1152       H  0.53669502  0.13878488  0.39178902     0.17900
H1153       H  0.43576558  0.11845549  0.37753323     0.17900
N1154       N  0.45626899  0.10899272  0.31691077    -0.88800
H1155       H  0.53488772  0.16676472  0.44985485     0.35200
H1156       H  0.52061699  0.13119634  0.46106724     0.40300
H1157       H  0.45616789  0.09009258  0.30939297     0.40000
H1158       H  0.46697687  0.12471756  0.29642923     0.34900
C1159       C  0.57186391  0.18787574  0.24031207    -0.26900
C1160       C  0.55419343  0.15776816  0.23211685    -0.15000
C1161       C  0.54550897  0.15014540  0.19485504     0.35700
C1162       C  0.55736896  0.17203550  0.16725572    -0.26300
C1163       C  0.57615235  0.20199658  0.17555787    -0.15600
C1164       C  0.58244543  0.20963855  0.21306546     0.36800
N1165       N  0.59960350  0.23977388  0.22389047    -0.89800
H1166       H  0.57757331  0.19476542  0.26861292     0.17900
H1167       H  0.55046447  0.16528247  0.13939187     0.17900
N1168       N  0.52334645  0.12082452  0.18488537    -0.88800
H1169       H  0.58701373  0.24408449  0.24185443     0.35200
H1170       H  0.61789263  0.24291170  0.23820348     0.40300
H1171       H  0.51970404  0.11888104  0.15656394     0.40000
H1172       H  0.50375783  0.11639001  0.19722398     0.34900
C1173       C  0.53407978  0.80707308  0.49966358    -0.26900
C1174       C  0.56017850  0.83455684  0.49862069    -0.15000
C1175       C  0.58717671  0.83587095  0.49553467     0.35700
C1176       C  0.58731841  0.80964296  0.49418463    -0.26300
C1177       C  0.56111061  0.78217063  0.49573612    -0.15600
C1178       C  0.53426234  0.78108644  0.49844409     0.36800
N1179       N  0.50696481  0.75365163  0.50034821    -0.89800
H1180       H  0.51316479  0.80558479  0.50198118     0.17900
H1181       H  0.60802313  0.81069621  0.49201321     0.17900
N1182       N  0.61430251  0.86364977  0.49386825    -0.88800
H1183       H  0.49390698  0.75264642  0.47848691     0.35200
H1184       H  0.49642037  0.75316322  0.52483189     0.40300
H1185       H  0.61454244  0.87367350  0.46918810     0.40000
H1186       H  0.63210802  0.86071582  0.49274948     0.34900
C1187       C  0.48183805  0.91474486  0.58821501    -0.26900
C1188       C  0.50542742  0.91100801  0.59507253    -0.15000
C1189       C  0.51317051  0.90997660  0.63174234     0.35700
C1190       C  0.49743820  0.91293763  0.66067124    -0.26300
C1191       C  0.47396079  0.91687246  0.65373297    -0.15600
C1192       C  0.46593848  0.91738010  0.61705503     0.36800
N1193       N  0.44103619  0.91952318  0.60881241    -0.89800
H1194       H  0.47536958  0.91525431  0.56021990     0.17900
H1195       H  0.50386619  0.91252537  0.68871537     0.17900
N1196       N  0.53736968  0.90660835  0.63980722    -0.88800
H1197       H  0.42619920  0.90102122  0.59371468     0.35200
H1198       H  0.44801101  0.93796387  0.59230691     0.40300
H1199       H  0.52964878  0.88791418  0.65605865     0.40000
H1200       H  0.55254300  0.92471934  0.65522441     0.34900
C1201       C  0.48162637  0.88909494  0.40572079    -0.26900
C1202       C  0.51098524  0.91114779  0.41191306    -0.15000
C1203       C  0.52523684  0.93476540  0.38682427     0.35700
C1204       C  0.50956982  0.93602308  0.35687521    -0.26300
C1205       C  0.48000962  0.91483041  0.35201248    -0.15600
C1206       C  0.46604495  0.89057833  0.37579890     0.36800
N1207       N  0.43597102  0.86794232  0.36993847    -0.89800
H1208       H  0.47068628  0.87072531  0.42443803     0.17900
H1209       H  0.52037530  0.95380136  0.33738175     0.17900
N1210       N  0.55530962  0.95765301  0.39198259    -0.88800
H1211       H  0.42872515  0.85211200  0.39059368     0.35200
H1212       H  0.43500256  0.85731195  0.34539013     0.40300
H1213       H  0.55617234  0.96945430  0.41536849     0.40000
H1214       H  0.56264987  0.97250044  0.37015039     0.34900
C1215       C  0.79757004  0.24336676  0.48299209    -0.26900
C1216       C  0.80161280  0.26670669  0.50522535    -0.15000
C1217       C  0.77898627  0.26193635  0.52982508     0.35700
C1218       C  0.75237504  0.23481137  0.52988518    -0.26300
C1219       C  0.74781252  0.21184055  0.50665253    -0.15600
C1220       C  0.77092691  0.21600445  0.48337569     0.36800
N1221       N  0.76712824  0.19283128  0.45955416    -0.89800
H1222       H  0.81492842  0.24674818  0.46438912     0.17900
H1223       H  0.73499686  0.23160275  0.54834770     0.17900
N1224       N  0.78304916  0.28458821  0.55483674    -0.88800
H1225       H  0.78641758  0.19922516  0.44492366     0.35200
H1226       H  0.75131889  0.18927863  0.44009516     0.40300
H1227       H  0.79958087  0.28819039  0.57314750     0.40000
H1228       H  0.76418956  0.27769682  0.57066343     0.34900
C1229       C  0.65031521  0.03929973  0.48125756    -0.26900
C1230       C  0.65266660  0.05402709  0.51420820    -0.15000
C1231       C  0.64354013  0.03793945  0.54733600     0.35700
C1232       C  0.62905329  0.00720200  0.54615071    -0.26300
C1233       C  0.62348841  0.99224215  0.51256746    -0.15600
C1234       C  0.63575555  0.00862834  0.48011096     0.36800
N1235       N  0.63189809  0.99427272  0.44550421    -0.89800
H1236       H  0.65769932  0.05138841  0.45570028     0.17900
H1237       H  0.62036939  0.99485642  0.57135425     0.17900
N1238       N  0.64773897  0.05272259  0.58184174    -0.88800
H1239       H  0.65261593  0.00173129  0.43418058     0.35200
H1240       H  0.62070167  0.00050079  0.42800724     0.40300
H1241       H  0.67031292  0.06608086  0.58603591     0.40000
H1242       H  0.63946976  0.03770482  0.60349483     0.34900
C1243       C  0.62141754  0.13042515  0.62985332    -0.26900
C1244       C  0.61219191  0.13109725  0.59395918    -0.15000
C1245       C  0.58508849  0.12916306  0.58889366     0.35700
C1246       C  0.56771166  0.12603486  0.61958089    -0.26300
C1247       C  0.57685348  0.12523681  0.65532258    -0.15600
C1248       C  0.60393257  0.12733598  0.66059430     0.36800
N1249       N  0.61324959  0.12568307  0.69696006    -0.89800
H1250       H  0.64209046  0.13174674  0.63392466     0.17900
H1251       H  0.54708959  0.12483583  0.61556991     0.17900
N1252       N  0.57538685  0.13076350  0.55272709    -0.88800
H1253       H  0.63365575  0.12751630  0.69609413     0.35200
H1254       H  0.59831039  0.10485131  0.70732175     0.40300
H1255       H  0.58984489  0.15182344  0.54263193     0.40000
H1256       H  0.55472403  0.12835141  0.55382181     0.34900
C1257       C  0.61185045  0.11328057  0.38461986    -0.26900
C1258       C  0.62070941  0.13638634  0.40978410    -0.15000
C1259       C  0.61293300  0.15737360  0.40296002     0.35700
C1260       C  0.59566750  0.15420727  0.37232133    -0.26300
C1261       C  0.58574579  0.13035870  0.34831454    -0.15600
C1262       C  0.59477758  0.11015556  0.35384826     0.36800
N1263       N  0.58706791  0.08624817  0.32906664    -0.89800
H1264       H  0.61797012  0.09719760  0.38900117     0.17900
H1265       H  0.58911062  0.16996890  0.36796462     0.17900
N1266       N  0.62180342  0.18153069  0.42746433    -0.88800
H1267       H  0.60655061  0.08888475  0.31870896     0.35200
H1268       H  0.57574255  0.08699637  0.30631742     0.40300
H1269       H  0.60294699  0.18050349  0.43745326     0.40000
H1270       H  0.63385151  0.20088695  0.41239195     0.34900
C1271       C  0.97262537  0.53468821  0.30642376    -0.26900
C1272       C  0.95781928  0.51282684  0.27987912    -0.15000
C1273       C  0.97434814  0.50775617  0.25383114     0.35700
C1274       C  0.00522693  0.52459352  0.25515412    -0.26300
C1275       C  0.02010894  0.54618624  0.28223939    -0.15600
C1276       C  0.00333478  0.55137156  0.30778619     0.36800
N1277       N  0.01717204  0.57399074  0.33480632    -0.89800
H1278       H  0.96025936  0.53913605  0.32623571     0.17900
H1279       H  0.01768938  0.52000928  0.23570933     0.17900
N1280       N  0.95982061  0.48490938  0.22693863    -0.88800
H1281       H  0.01022964  0.56441223  0.36074338     0.35200
H1282       H  0.00988706  0.58849636  0.33125182     0.40300
H1283       H  0.94866676  0.46495500  0.24096890     0.40000
H1284       H  0.97508852  0.48407367  0.20979365     0.34900
C1285       C  0.91106747  0.43318765  0.35602368    -0.26900
C1286       C  0.88531387  0.42932569  0.34071579    -0.15000
C1287       C  0.85802879  0.40797138  0.35580778     0.35700
C1288       C  0.85702853  0.39144345  0.38622324    -0.26300
C1289       C  0.88282134  0.39615114  0.40249913    -0.15600
C1290       C  0.91017892  0.41699668  0.38661065     0.36800
N1291       N  0.93740764  0.42199825  0.40047912    -0.89800
H1292       H  0.93215981  0.44941397  0.34456696     0.17900
H1293       H  0.83593252  0.37564233  0.39805174     0.17900
N1294       N  0.83134065  0.40420004  0.34182254    -0.88800
H1295       H  0.93648915  0.40203379  0.40114717     0.35200
H1296       H  0.94046729  0.43043798  0.42707924     0.40300
H1297       H  0.82082167  0.40832954  0.36313697     0.40000
H1298       H  0.81787030  0.38233221  0.33385250     0.34900
C1299       C  0.83758410  0.44618309  0.16315760    -0.26900
C1300       C  0.80884922  0.43924380  0.17111985    -0.15000
C1301       C  0.80167080  0.44004527  0.20840860     0.35700
C1302       C  0.82317048  0.44967044  0.23567969    -0.26300
C1303       C  0.85249455  0.45888859  0.22750346    -0.15600
C1304       C  0.85898964  0.45507789  0.19080895     0.36800
N1305       N  0.88642953  0.45811873  0.18148401    -0.89800
H1306       H  0.84352056  0.44332983  0.13579346     0.17900
H1307       H  0.81652254  0.44949716  0.26386661     0.17900
N1308       N  0.77220402  0.43050815  0.21905491    -0.88800
H1309       H  0.89620055  0.47377281  0.16065898     0.35200
H1310       H  0.88230265  0.43810818  0.17105140     0.40300
H1311       H  0.77235329  0.44785076  0.23251377     0.40000
H1312       H  0.76502478  0.41326842  0.23771132     0.34900
C1313       C  0.00750281  0.54966073  0.73393310    -0.26900
C1314       C  0.02091240  0.53573451  0.71775873    -0.15000
C1315       C  0.00298183  0.50773630  0.70180681     0.35700
C1316       C  0.97242434  0.49477360  0.70134382    -0.26300
C1317       C  0.95906779  0.50880415  0.71723829    -0.15600
C1318       C  0.97690386  0.53652881  0.73381989     0.36800
N1319       N  0.96455653  0.55218689  0.74972479    -0.89800
H1320       H  0.02095980  0.57112526  0.74621535     0.17900
H1321       H  0.95895214  0.47339507  0.68885129     0.17900
N1322       N  0.01507811  0.49144355  0.68724487    -0.88800
H1323       H  0.95043830  0.53961222  0.77103287     0.35200
H1324       H  0.95230423  0.55486591  0.72961318     0.40300
H1325       H  0.02713215  0.48916772  0.70798844     0.40000
H1326       H  0.02918260  0.50314050  0.66554344     0.34900
C1327       C  0.10326778  0.49631221  0.62441842    -0.26900
C1328       C  0.10894022  0.50993502  0.58985347    -0.15000
C1329       C  0.10990911  0.53683159  0.58704259     0.35700
C1330       C  0.10406300  0.54855917  0.61795184    -0.26300
C1331       C  0.09767721  0.53453280  0.65211414    -0.15600
C1332       C  0.09778850  0.50839582  0.65559565     0.36800
N1333       N  0.09183923  0.49396148  0.69055884    -0.89800
H1334       H  0.10260687  0.47585059  0.62704289     0.17900
H1335       H  0.10470522  0.56901645  0.61524222     0.17900
N1336       N  0.11605031  0.55253039  0.55316610    -0.88800
H1337       H  0.09294568  0.47510638  0.68851146     0.35200
H1338       H  0.07026887  0.48702730  0.69782079     0.40300
H1339       H  0.10027192  0.53913852  0.53385312     0.40000
H1340       H  0.13681418  0.55800361  0.54388216     0.34900
C1341       C  0.12923097  0.56363116  0.79097734    -0.26900
C1342       C  0.12146239  0.58325267  0.77742084    -0.15000
C1343       C  0.13131363  0.60947167  0.79775727     0.35700
C1344       C  0.15387204  0.61838005  0.82356516    -0.26300
C1345       C  0.16572244  0.60098667  0.83186348    -0.15600
C1346       C  0.15050406  0.57182365  0.81848708     0.36800
N1347       N  0.15631200  0.55045432  0.83293825    -0.89800
H1348       H  0.11873232  0.54163548  0.78000450     0.17900
H1349       H  0.16184364  0.63901167  0.83764390     0.17900
N1350       N  0.11795843  0.62665631  0.79495208    -0.88800
H1351       H  0.14330641  0.53017072  0.82008947     0.35200
H1352       H  0.15028759  0.54745890  0.86066832     0.40300
H1353       H  0.09851192  0.61591437  0.78005212     0.40000
H1354       H  0.13274453  0.64639155  0.78195059     0.34900
C1355       C  0.80758363  0.62429750  0.49807136    -0.26900
C1356       C  0.80571934  0.59734278  0.49314222    -0.15000
C1357       C  0.77810034  0.57203964  0.48598383     0.35700
C1358       C  0.75290301  0.57381054  0.48687538    -0.26300
C1359       C  0.75447253  0.60040286  0.49358776    -0.15600
C1360       C  0.78228524  0.62616187  0.49825101     0.36800
N1361       N  0.78485567  0.65400308  0.50353023    -0.89800
H1362       H  0.82878834  0.64390485  0.50267774     0.17900
H1363       H  0.73179139  0.55413174  0.48207958     0.17900
N1364       N  0.77562311  0.54458832  0.47759887    -0.88800
H1365       H  0.80687956  0.67080365  0.50496810     0.35200
H1366       H  0.77557252  0.65346228  0.52907090     0.40300
H1367       H  0.78630693  0.54709139  0.45252334     0.40000
H1368       H  0.75373136  0.52808835  0.47363422     0.34900
C1369       C  0.86003435  0.53224761  0.61412793    -0.26900
C1370       C  0.88538705  0.55147744  0.59412435    -0.15000
C1371       C  0.91245170  0.55556128  0.60531241     0.35700
C1372       C  0.91357420  0.53984682  0.63536694    -0.26300
C1373       C  0.88806326  0.51953959  0.65447069    -0.15600
C1374       C  0.86099826  0.51593489  0.64365084     0.36800
N1375       N  0.83414467  0.49468805  0.66112104    -0.89800
H1376       H  0.83906568  0.52878372  0.60576964     0.17900
H1377       H  0.93462334  0.54342939  0.64350170     0.17900
N1378       N  0.93897347  0.57578947  0.58633515    -0.88800
H1379       H  0.82035145  0.47981758  0.64119506     0.35200
H1380       H  0.82413584  0.50552713  0.67160817     0.40300
H1381       H  0.94849843  0.56429132  0.57654400     0.40000
H1382       H  0.95335641  0.59138205  0.60523130     0.34900
C1383       C  0.88119439  0.53568275  0.34327522    -0.26900
C1384       C  0.88508649  0.51213542  0.35016542    -0.15000
C1385       C  0.88639930  0.50466114  0.38700904     0.35700
C1386       C  0.88404624  0.52086338  0.41571604    -0.26300
C1387       C  0.88017152  0.54436752  0.40893316    -0.15600
C1388       C  0.87898005  0.55204107  0.37212821     0.36800
N1389       N  0.87572269  0.57640349  0.36398065    -0.89800
H1390       H  0.88050914  0.54179414  0.31515441     0.17900
H1391       H  0.88502344  0.51481403  0.44378317     0.17900
N1392       N  0.88905186  0.48001174  0.39546108    -0.88800
H1393       H  0.87394909  0.57821809  0.33566825     0.35200
H1394       H  0.89503669  0.59545926  0.37198218     0.40300
H1395       H  0.86938937  0.46125163  0.38781675     0.40000
H1396       H  0.89113525  0.47836519  0.42373897     0.34900
C1397       C  0.20743679  0.78227361  0.49814728    -0.26900
C1398       C  0.18119301  0.78161340  0.50399747    -0.15000
C1399       C  0.18212544  0.80828776  0.50833079     0.35700
C1400       C  0.20933444  0.83494448  0.50718147    -0.26300
C1401       C  0.23563025  0.83557318  0.50155625    -0.15600
C1402       C  0.23447939  0.80877986  0.49701601     0.36800
N1403       N  0.26067167  0.80817995  0.49158252    -0.89800
H1404       H  0.20708802  0.76198780  0.49485776     0.17900
H1405       H  0.20996095  0.85534426  0.51062036     0.17900
N1406       N  0.15552318  0.80831899  0.51342750    -0.88800
H1407       H  0.25881858  0.79751806  0.46672852     0.35200
H1408       H  0.26206085  0.79581082  0.51270680     0.40300
H1409       H  0.14332600  0.80023576  0.48931411     0.40000
H1410       H  0.16008235  0.82969853  0.51666930     0.34900
C1411       C  0.01121892  0.68998675  0.47293893    -0.26900
C1412       C  0.02459620  0.69483477  0.50742591    -0.15000
C1413       C  0.00728874  0.68851065  0.53933485     0.35700
C1414       C  0.97670418  0.67416612  0.53631700    -0.26300
C1415       C  0.96306054  0.66552206  0.50188487    -0.15600
C1416       C  0.98058338  0.67523027  0.46978069     0.36800
N1417       N  0.96722143  0.66831443  0.43410010    -0.89800
H1418       H  0.02443103  0.69533958  0.44823885     0.17900
H1419       H  0.96358834  0.66749930  0.56119907     0.17900
N1420       N  0.02051158  0.69518801  0.57491544    -0.88800
H1421       H  0.98316265  0.67638073  0.41338859     0.35200
H1422       H  0.95588566  0.67921920  0.43147596     0.40300
H1423       H  0.01160168  0.67565476  0.58974066     0.40000
H1424       H  0.01481068  0.70876272  0.58842131     0.34900
C1425       C  0.12484004  0.65469534  0.61366638    -0.26900
C1426       C  0.09915632  0.65048633  0.59759285    -0.15000
C1427       C  0.07169905  0.62897059  0.61209944     0.35700
C1428       C  0.07048711  0.61145476  0.64152527    -0.26300
C1429       C  0.09608956  0.61500125  0.65699095    -0.15600
C1430       C  0.12362996  0.63688907  0.64285424     0.36800
N1431       N  0.15018024  0.64023815  0.65711379    -0.89800
H1432       H  0.14590813  0.67118167  0.60245213     0.17900
H1433       H  0.04936200  0.59487399  0.65250918     0.17900
N1434       N  0.04514466  0.62518876  0.59715132    -0.88800
H1435       H  0.16848246  0.65726550  0.64371141     0.35200
H1436       H  0.14997452  0.62103539  0.65113097     0.40300
H1437       H  0.04524060  0.64445710  0.60219056     0.40000
H1438       H  0.02682151  0.60841542  0.61083442     0.34900
C1439       C  0.11943932  0.64496929  0.40739643    -0.26900
C1440       C  0.10017984  0.65515735  0.41156001    -0.15000
C1441       C  0.07993889  0.64967790  0.38328456     0.35700
C1442       C  0.07868878  0.63335819  0.35231248    -0.26300
C1443       C  0.09716123  0.62229695  0.34910189    -0.15600
C1444       C  0.11818383  0.62878738  0.37634759     0.36800
N1445       N  0.13813068  0.61873739  0.37269022    -0.89800
H1446       H  0.13546572  0.64939239  0.42843957     0.17900
H1447       H  0.06297193  0.62900271  0.33090572     0.17900
N1448       N  0.06009535  0.65991004  0.38623361    -0.88800
H1449       H  0.13589410  0.60625276  0.39584396     0.35200
H1450       H  0.15942240  0.63707008  0.37266310     0.40300
H1451       H  0.03871549  0.64177240  0.38488918     0.40000
H1452       H  0.06345205  0.67324969  0.36356913     0.34900
loop_ 
_geom_bond_atom_site_label_1 
_geom_bond_atom_site_label_2 
_geom_bond_distance 
_geom_bond_site_symmetry_2 
_ccdc_geom_bond_type 
In1           O3   2.251       .  S
In1           O4   2.254       .  S
In1          O12   2.239       .  S
In1           O6   2.265       .  S
In1           O8   2.248       .  S
In1           O9   2.261       .  S
In1          O10   2.249       .  S
In1          O13   2.248       .  S
C2            O8   1.261       .  A
C2           O10   1.261       .  A
C2         C1412   1.482       .  S
O3           C11   1.258       .  A
O4           C11   1.261       .  A
C5           O12   1.257       .  A
C5            O6   1.261       .  A
C5         C1398   1.483       .  S
C7            O9   1.262       .  A
C7           O13   1.261       .  A
C7         C1426   1.482       .  S
C11        C1440   1.483       .  S
In14         O16   2.237       .  S
In14         O17   2.270       .  S
In14         O25   2.232       .  S
In14         O19   2.263       .  S
In14         O21   2.230       .  S
In14         O22   2.242       .  S
In14         O23   2.258       .  S
In14         O26   2.263       .  S
C15          O21   1.258       .  A
C15          O23   1.261       .  A
C15        C1415   1.482       .  S
O16          C24   1.259       .  A
O17          C24   1.264       .  A
C18          O25   1.260       .  A
C18          O19   1.262       .  A
C18        C1356   1.486       .  S
C20          O22   1.259       .  A
C20          O26   1.259       .  A
C20        C1387   1.488       .  S
C24        C1370   1.484       .  S
C27          C28   1.548       .  S
C27          C33   1.539       .  S
C27          C31   1.550       .  S
C27        C1342   1.545       .  S
C28          H35   1.085       .  S
C28          C29   1.362       .  D
C29          C30   1.536       .  S
C29        C1331   1.486       .  S
C30          C34   1.541       .  S
C30          C32   1.537       .  S
C30          H36   1.111       .  S
C31          H37   1.084       .  S
C31          C32   1.370       .  D
C32        C1429   1.491       .  S
C33          H38   1.086       .  S
C33          C34   1.368       .  D
C34        C1314   1.492       .  S
C39          C40   1.548       .  S
C39          C45   1.548       .  S
C39          C43   1.540       .  S
C39        C1303   1.545       .  S
C40          H47   1.082       .  S
C40          C41   1.369       .  D
C41          C42   1.538       .  S
C41        C1272   1.493       .  S
C42          C46   1.538       .  S
C42          C44   1.535       .  S
C42          H48   1.109       .  S
C43          H49   1.086       .  S
C43          C44   1.366       .  D
C44        C1286   1.488       .  S
C45          H50   1.085       .  S
C45          C46   1.368       .  D
C46        C1384   1.497       .  S
In51         O53   2.253       .  S
In51         O54   2.239       .  S
In51         O62   2.251       .  S
In51         O56   2.282       .  S
In51         O58   2.265       .  S
In51         O59   2.271       .  S
In51         O60   2.249       .  S
In51         O63   2.258       .  S
C52          O58   1.262       .  A
C52          O60   1.258       .  A
C52        C1230   1.484       .  S
O53          C61   1.265       .  A
O54          C61   1.263       .  A
C55          O62   1.256       .  A
C55          O56   1.259       .  A
C55        C1219   1.490       .  S
C57          O59   1.259       .  A
C57          O63   1.257       .  A
C57        C1258   1.490       .  S
C61        C1244   1.486       .  S
In64         O66   2.239       .  S
In64         O67   2.252       .  S
In64         O75   2.240       .  S
In64         O69   2.272       .  S
In64         O71   2.238       .  S
In64         O72   2.238       .  S
In64         O73   2.249       .  S
In64         O76   2.256       .  S
C65          O71   1.261       .  A
C65          O73   1.262       .  A
C65        C1233   1.485       .  S
O66          C74   1.258       .  A
O67          C74   1.261       .  A
C68          O75   1.256       .  A
C68          O69   1.258       .  A
C68        C1174   1.485       .  S
C70          O72   1.260       .  A
C70          O76   1.263       .  A
C70        C1188   1.481       .  S
C74        C1202   1.483       .  S
C77          C78   1.542       .  S
C77          C83   1.556       .  S
C77          C81   1.546       .  S
C77        C1160   1.557       .  S
C78          H85   1.086       .  S
C78          C79   1.366       .  D
C79          C80   1.533       .  S
C79        C1146   1.485       .  S
C80          C84   1.542       .  S
C80          C82   1.536       .  S
C80          H86   1.110       .  S
C81          H87   1.086       .  S
C81          C82   1.363       .  D
C82        C1261   1.483       .  S
C83          H88   1.078       .  S
C83          C84   1.375       .  D
C84        C1132   1.507       .  S
C89          C90   1.540       .  S
C89          C95   1.543       .  S
C89          C93   1.550       .  S
C89        C1118   1.541       .  S
C90          H97   1.086       .  S
C90          C91   1.369       .  D
C91          C92   1.537       .  S
C91        C1090   1.489       .  S
C92          C96   1.534       .  S
C92          C94   1.534       .  S
C92          H98   1.108       .  S
C93          H99   1.085       .  S
C93          C94   1.368       .  D
C94        C1104   1.489       .  S
C95         H100   1.085       .  S
C95          C96   1.364       .  D
C96        C1191   1.487       .  S
C101        C102   1.546       .  S
C101        C107   1.550       .  S
C101        C105   1.545       .  S
C101       C1051   1.548       .  S
C102        H109   1.085       .  S
C102        C103   1.372       .  D
C103        C104   1.535       .  S
C103       C1062   1.492       .  S
C104        C108   1.536       .  S
C104        C106   1.528       .  S
C104        H110   1.110       .  S
C105        H111   1.086       .  S
C105        C106   1.363       .  D
C106       C1076   1.478       .  S
C107        H112   1.081       .  S
C107        C108   1.368       .  D
C108       C1037   1.489       .  S
C113        C114   1.537       .  S
C113        C119   1.550       .  S
C113        C117   1.546       .  S
C113        C992   1.537       .  S
C114        H121   1.086       .  S
C114        C115   1.360       .  D
C115        C116   1.530       .  S
C115       C1023   1.476       .  S
C116        C120   1.537       .  S
C116        C118   1.535       .  S
C116        H122   1.111       .  S
C117        H123   1.084       .  S
C117        C118   1.367       .  D
C118       C1006   1.491       .  S
C119        H124   1.084       .  S
C119        C120   1.371       .  D
C120       C1034   1.486       .  S
C125        C126   1.545       .  S
C125        C131   1.549       .  S
C125        C129   1.544       .  S
C125        C950   1.546       .  S
C126        H133   1.086       .  S
C126        C127   1.365       .  D
C127        C128   1.535       .  S
C127        C964   1.488       .  S
C128        C132   1.539       .  S
C128        C130   1.544       .  S
C128        H134   1.109       .  S
C129        H135   1.084       .  S
C129        C130   1.370       .  D
C130        C981   1.504       .  S
C131        H136   1.081       .  S
C131        C132   1.367       .  D
C132        C936   1.489       .  S
In137       O139   2.253       .  S
In137       O140   2.254       .  S
In137       O148   2.250       .  S
In137       O142   2.294       .  S
In137       O144   2.262       .  S
In137       O145   2.249       .  S
In137       O146   2.260       .  S
In137       O149   2.270       .  S
C138        O144   1.261       .  A
C138        O146   1.260       .  A
C138        C922   1.493       .  S
O139        C147   1.260       .  A
O140        C147   1.262       .  A
C141        O148   1.257       .  A
C141        O142   1.263       .  A
C141        C908   1.496       .  S
C143        O145   1.260       .  A
C143        O149   1.262       .  A
C143        C978   1.487       .  S
C147       C1020   1.484       .  S
In150       O152   2.250       .  S
In150       O153   2.267       .  S
In150       O161   2.252       .  S
In150       O155   2.295       .  S
In150       O157   2.241       .  S
In150       O158   2.266       .  S
In150       O159   2.268       .  S
In150       O162   2.246       .  S
C151        O157   1.260       .  A
C151        O159   1.264       .  A
C151        C925   1.492       .  S
O152        C160   1.258       .  A
O153        C160   1.261       .  A
C154        O161   1.254       .  A
C154        O155   1.262       .  A
C154        C883   1.499       .  S
C156        O158   1.262       .  A
C156        O162   1.259       .  A
C156       C1079   1.484       .  S
C160        C894   1.485       .  S
C163        C164   1.538       .  S
C163        C169   1.554       .  S
C163        C167   1.546       .  S
C163        C866   1.545       .  S
C164        H171   1.087       .  S
C164        C165   1.363       .  D
C165        C166   1.535       .  S
C165        C897   1.484       .  S
C166        C170   1.534       .  S
C166        C168   1.537       .  S
C166        H172   1.110       .  S
C167        H173   1.084       .  S
C167        C168   1.365       .  D
C168        C852   1.488       .  S
C169        H174   1.080       .  S
C169        C170   1.369       .  D
C170        C939   1.487       .  S
In175       O177   2.275       .  S
In175       O178   2.224       .  S
In175       O186   2.235       .  S
In175       O180   2.275       .  S
In175       O182   2.240       .  S
In175       O183   2.240       .  S
In175       O184   2.257       .  S
In175       O187   2.262       .  S
C176        O182   1.258       .  A
C176        O184   1.260       .  A
C176        C841   1.482       .  S
O177        C185   1.263       .  A
O178        C185   1.260       .  A
C179        O186   1.255       .  A
C179        O180   1.259       .  A
C179       C1177   1.486       .  S
C181        O183   1.259       .  A
C181        O187   1.264       .  A
C181       C1009   1.487       .  S
C185        C967   1.488       .  S
In188       O190   2.255       .  S
In188       O191   2.231       .  S
In188       O199   2.240       .  S
In188       O193   2.273       .  S
In188       O195   2.250       .  S
In188       O196   2.236       .  S
In188       O197   2.248       .  S
In188       O200   2.268       .  S
C189        O195   1.258       .  A
C189        O197   1.260       .  A
C189        C838   1.483       .  S
O190        C198   1.264       .  A
O191        C198   1.260       .  A
C192        O199   1.257       .  A
C192        O193   1.259       .  A
C192       C1359   1.487       .  S
C194        O196   1.259       .  A
C194        O200   1.262       .  A
C194        C855   1.486       .  S
C198       C1065   1.484       .  S
C201        C202   1.552       .  S
C201        C207   1.551       .  S
C201        C205   1.546       .  S
C201        C869   1.542       .  S
C202        H209   1.084       .  S
C202        C203   1.372       .  D
C203        C204   1.543       .  S
C203        C796   1.496       .  S
C204        C208   1.527       .  S
C204        C206   1.532       .  S
C204        H210   1.110       .  S
C205        H211   1.086       .  S
C205        C206   1.361       .  D
C206        C813   1.483       .  S
C207        H212   1.081       .  S
C207        C208   1.364       .  D
C208        C824   1.491       .  S
C213        C214   1.546       .  S
C213        C219   1.551       .  S
C213        C217   1.543       .  S
C213        C754   1.547       .  S
C214        H221   1.086       .  S
C214        C215   1.364       .  D
C215        C216   1.544       .  S
C215        C810   1.488       .  S
C216        C220   1.540       .  S
C216        C218   1.539       .  S
C216        H222   1.111       .  S
C217        H223   1.086       .  S
C217        C218   1.364       .  D
C218        C785   1.489       .  S
C219        H224   1.075       .  S
C219        C220   1.365       .  D
C220        C768   1.491       .  S
C225        C226   1.553       .  S
C225        C231   1.551       .  S
C225        C229   1.549       .  S
C225        C740   1.548       .  S
C226        H233   1.085       .  S
C226        C227   1.368       .  D
C227        C228   1.537       .  S
C227        C782   1.494       .  S
C228        C232   1.526       .  S
C228        C230   1.535       .  S
C228        H234   1.110       .  S
C229        H235   1.086       .  S
C229        C230   1.368       .  D
C230        C799   1.493       .  S
C231        H236   1.083       .  S
C231        C232   1.365       .  D
C232        C726   1.480       .  S
C237        C238   1.550       .  S
C237        C243   1.558       .  S
C237        C241   1.549       .  S
C237       C1163   1.551       .  S
C238        H245   1.086       .  S
C238        C239   1.368       .  D
C239        C240   1.529       .  S
C239        C712   1.485       .  S
C240        C244   1.527       .  S
C240        C242   1.530       .  S
C240        H246   1.112       .  S
C241        H247   1.086       .  S
C241        C242   1.364       .  D
C242        C701   1.484       .  S
C243        H248   1.081       .  S
C243        C244   1.370       .  D
C244        C771   1.483       .  S
C249        C250   1.548       .  S
C249        C255   1.549       .  S
C249        C253   1.539       .  S
C249       C1300   1.542       .  S
C250        H257   1.081       .  S
C250        C251   1.372       .  D
C251        C252   1.541       .  S
C251        C684   1.503       .  S
C252        C256   1.536       .  S
C252        C254   1.533       .  S
C252        H258   1.110       .  S
C253        H259   1.086       .  S
C253        C254   1.362       .  D
C254        C715   1.485       .  S
C255        H260   1.083       .  S
C255        C256   1.368       .  D
C256        C729   1.485       .  S
C261        C262   1.553       .  S
C261        C267   1.549       .  S
C261        C265   1.542       .  S
C261       C1048   1.550       .  S
C262        H269   1.086       .  S
C262        C263   1.366       .  D
C263        C264   1.533       .  S
C263        C698   1.487       .  S
C264        C268   1.537       .  S
C264        C266   1.540       .  S
C264        H270   1.110       .  S
C265        H271   1.086       .  S
C265        C266   1.368       .  D
C266        C687   1.497       .  S
C267        H272   1.081       .  S
C267        C268   1.367       .  D
C268        C827   1.485       .  S
C273        C274   1.548       .  S
C273        C279   1.554       .  S
C273        C277   1.555       .  S
C273        C953   1.558       .  S
C274        H281   1.086       .  S
C274        C275   1.361       .  D
C275        C276   1.531       .  S
C275        C656   1.481       .  S
C276        C280   1.529       .  S
C276        C278   1.537       .  S
C276        H282   1.110       .  S
C277        H283   1.086       .  S
C277        C278   1.371       .  D
C278        C642   1.500       .  S
C279        H284   1.071       .  S
C279        C280   1.367       .  D
C280        C670   1.488       .  S
C285        C286   1.560       .  S
C285        C291   1.532       .  S
C285        C289   1.546       .  S
C285       C1121   1.539       .  S
C286        H293   1.085       .  S
C286        C287   1.375       .  D
C287        C288   1.538       .  S
C287        C645   1.499       .  S
C288        C292   1.535       .  S
C288        C290   1.537       .  S
C288        H294   1.111       .  S
C289        H295   1.084       .  S
C289        C290   1.365       .  D
C290        C614   1.493       .  S
C291        H296   1.086       .  S
C291        C292   1.359       .  D
C292        C628   1.476       .  S
C297        C298   1.548       .  S
C297        C303   1.547       .  S
C297        C301   1.546       .  S
C297       C1345   1.543       .  S
C298        H305   1.085       .  S
C298        C299   1.365       .  D
C299        C300   1.532       .  S
C299        C617   1.484       .  S
C300        C304   1.538       .  S
C300        C302   1.538       .  S
C300        H306   1.108       .  S
C301        H307   1.084       .  S
C301        C302   1.360       .  D
C302        C659   1.485       .  S
C303        H308   1.084       .  S
C303        C304   1.375       .  D
C304        C600   1.502       .  S
C309        C310   1.555       .  S
C309        C315   1.546       .  S
C309        C313   1.542       .  S
C309        C995   1.544       .  S
C310        H317   1.085       .  S
C310        C311   1.369       .  D
C311        C312   1.538       .  S
C311        C572   1.493       .  S
C312        C316   1.530       .  S
C312        C314   1.531       .  S
C312        H318   1.109       .  S
C313        H319   1.086       .  S
C313        C314   1.361       .  D
C314        C589   1.481       .  S
C315        H320   1.077       .  S
C315        C316   1.366       .  D
C316        C673   1.487       .  S
C321        C322   1.542       .  S
C321        C327   1.555       .  S
C321        C325   1.542       .  S
C321        C544   1.548       .  S
C322        H329   1.086       .  S
C322        C323   1.361       .  D
C323        C324   1.542       .  S
C323        C586   1.486       .  S
C324        C328   1.545       .  S
C324        C326   1.533       .  S
C324        H330   1.105       .  S
C325        H331   1.086       .  S
C325        C326   1.361       .  D
C326        C558   1.486       .  S
C327        H332   1.077       .  S
C327        C328   1.378       .  D
C328        C603   1.510       .  S
C333        C334   1.553       .  S
C333        C339   1.534       .  S
C333        C337   1.553       .  S
C333        C533   1.538       .  S
C334        H341   1.084       .  S
C334        C335   1.368       .  D
C335        C336   1.535       .  S
C335        C561   1.495       .  S
C336        C340   1.531       .  S
C336        C338   1.539       .  S
C336        H342   1.111       .  S
C337        H343   1.084       .  S
C337        C338   1.370       .  D
C338        C575   1.493       .  S
C339        H344   1.086       .  S
C339        C340   1.360       .  D
C340        C631   1.475       .  S
In345       O347   2.256       .  S
In345       O348   2.246       .  S
In345       O356   2.263       .  S
In345       O350   2.289       .  S
In345       O352   2.263       .  S
In345       O353   2.240       .  S
In345       O354   2.251       .  S
In345       O357   2.273       .  S
C346        O352   1.260       .  A
C346        O354   1.259       .  A
C346        C505   1.489       .  S
O347        C355   1.263       .  A
O348        C355   1.260       .  A
C349        O356   1.257       .  A
C349        O350   1.259       .  A
C349        C911   1.498       .  S
C351        O353   1.259       .  A
C351        O357   1.265       .  A
C351        C516   1.490       .  S
C355       C1328   1.489       .  S
In358       O360   2.237       .  S
In358       O361   2.263       .  S
In358       O369   2.245       .  S
In358       O363   2.283       .  S
In358       O365   2.258       .  S
In358       O366   2.253       .  S
In358       O367   2.244       .  S
In358       O370   2.257       .  S
C359        O365   1.260       .  A
C359        O367   1.260       .  A
C359        C502   1.488       .  S
O360        C368   1.258       .  A
O361        C368   1.263       .  A
C362        O369   1.257       .  A
C362        O363   1.262       .  A
C362       C1216   1.492       .  S
C364        O366   1.261       .  A
C364        O370   1.262       .  A
C364        C488   1.490       .  S
C368       C1289   1.482       .  S
C371        C372   1.538       .  S
C371        C377   1.548       .  S
C371        C375   1.552       .  S
C371        C743   1.553       .  S
C372        H379   1.085       .  S
C372        C373   1.369       .  D
C373        C374   1.541       .  S
C373       C1373   1.497       .  S
C374        C378   1.539       .  S
C374        C376   1.532       .  S
C374        H380   1.110       .  S
C375        H381   1.085       .  S
C375        C376   1.365       .  D
C376        C491   1.487       .  S
C377        H382   1.079       .  S
C377        C378   1.370       .  D
C378       C1317   1.490       .  S
C383        C384   1.552       .  S
C383        C389   1.542       .  S
C383        C387   1.542       .  S
C383        C547   1.544       .  S
C384        H391   1.081       .  S
C384        C385   1.374       .  D
C385        C386   1.541       .  S
C385       C1275   1.501       .  S
C386        C390   1.538       .  S
C386        C388   1.533       .  S
C386        H392   1.107       .  S
C387        H393   1.086       .  S
C387        C388   1.362       .  D
C388       C1443   1.477       .  S
C389        H394   1.085       .  S
C389        C390   1.366       .  D
C390        C519   1.496       .  S
In395       O397   2.258       .  S
In395       O398   2.248       .  S
In395       O406   2.259       .  S
In395       O400   2.281       .  S
In395       O402   2.251       .  S
In395       O403   2.258       .  S
In395       O404   2.247       .  S
In395       O407   2.236       .  S
C396        O402   1.261       .  A
C396        O404   1.263       .  A
C396        C460   1.488       .  S
O397        C405   1.262       .  A
O398        C405   1.259       .  A
C399        O406   1.258       .  A
C399        O400   1.261       .  A
C399        C880   1.497       .  S
C401        O403   1.263       .  A
C401        O407   1.258       .  A
C401        C474   1.479       .  S
C405       C1149   1.488       .  S
In408       O410   2.250       .  S
In408       O411   2.257       .  S
In408       O419   2.234       .  S
In408       O413   2.270       .  S
In408       O415   2.269       .  S
In408       O416   2.239       .  S
In408       O417   2.244       .  S
In408       O420   2.260       .  S
C409        O415   1.262       .  A
C409        O417   1.260       .  A
C409        C463   1.487       .  S
O410        C418   1.260       .  A
O411        C418   1.259       .  A
C412        O419   1.257       .  A
C412        O413   1.264       .  A
C412       C1401   1.488       .  S
C414        O416   1.260       .  A
C414        O420   1.262       .  A
C414        C446   1.487       .  S
C418       C1107   1.484       .  S
C421        C422   1.550       .  S
C421        C427   1.538       .  S
C421        C425   1.544       .  S
C421        C757   1.538       .  S
C422        H429   1.080       .  S
C422        C423   1.368       .  D
C423        C424   1.537       .  S
C423       C1093   1.489       .  S
C424        C428   1.532       .  S
C424        C426   1.533       .  S
C424        H430   1.110       .  S
C425        H431   1.086       .  S
C425        C426   1.367       .  D
C426       C1247   1.485       .  S
C427        H432   1.087       .  S
C427        C428   1.362       .  D
C428        C477   1.481       .  S
C433        C434   1.542       .  S
C433        C439   1.545       .  S
C433        C437   1.547       .  S
C433        C530   1.542       .  S
C434        H441   1.085       .  S
C434        C435   1.356       .  D
C435        C436   1.534       .  S
C435       C1205   1.473       .  S
C436        C440   1.543       .  S
C436        C438   1.536       .  S
C436        H442   1.108       .  S
C437        H443   1.083       .  S
C437        C438   1.367       .  D
C438        C449   1.489       .  S
C439        H444   1.085       .  S
C439        C440   1.376       .  D
C440       C1135   1.507       .  S
C445        C446   1.407       .  A
C445        C450   1.404       .  A
C445        H452   1.084       .  S
C446        C447   1.412       .  A
C447        C448   1.401       .  A
C447        N454   1.433       .  S
C448        C449   1.402       .  A
C448        H453   1.083       .  S
C449        C450   1.416       .  A
C450        N451   1.433       .  S
N451        H455   1.043       .  S
N451        H456   1.046       .  S
N454        H457   1.046       .  S
N454        H458   1.046       .  S
C459        C460   1.405       .  A
C459        C464   1.407       .  A
C459        H466   1.083       .  S
C460        C461   1.413       .  A
C461        C462   1.407       .  A
C461        N468   1.433       .  S
C462        C463   1.405   1_545  A
C462        H467   1.084   1_545  S
C463        C464   1.413   1_565  A
C464        N465   1.437   1_545  S
N465        H469   1.046   1_565  S
N465        H470   1.045       .  S
N468        H471   1.046       .  S
N468        H472   1.046       .  S
C473        C474   1.407       .  A
C473        C478   1.402       .  A
C473        H480   1.084       .  S
C474        C475   1.411       .  A
C475        C476   1.405       .  A
C475        N482   1.438       .  S
C476        C477   1.404       .  A
C476        H481   1.084       .  S
C477        C478   1.405       .  A
C478        N479   1.433       .  S
N479        H483   1.046       .  S
N479        H484   1.045       .  S
N482        H485   1.046       .  S
N482        H486   1.046       .  S
C487        C488   1.407       .  A
C487        C492   1.408       .  A
C487        H494   1.083       .  S
C488        C489   1.417       .  A
C489        C490   1.408       .  A
C489        N496   1.438       .  S
C490        C491   1.402       .  A
C490        H495   1.084       .  S
C491        C492   1.410       .  A
C492        N493   1.438       .  S
N493        H497   1.046       .  S
N493        H498   1.046       .  S
N496        H499   1.046       .  S
N496        H500   1.046       .  S
C501        C502   1.406       .  A
C501        C506   1.409   1_655  A
C501        H508   1.084       .  S
C502        C503   1.413       .  A
C503        C504   1.406   1_655  A
C503        N510   1.438       .  S
C504        C505   1.405       .  A
C504        H509   1.083       .  S
C505        C506   1.415       .  A
C506        N507   1.438       .  S
N507        H511   1.046       .  S
N507        H512   1.045       .  S
N510        H513   1.046       .  S
N510        H514   1.046       .  S
C515        C516   1.406       .  A
C515        C520   1.412       .  A
C515        H522   1.083       .  S
C516        C517   1.412       .  A
C517        C518   1.401       .  A
C517        N524   1.433       .  S
C518        C519   1.403       .  A
C518        H523   1.082       .  S
C519        C520   1.415       .  A
C520        N521   1.437       .  S
N521        H525   1.046       .  S
N521        H526   1.046       .  S
N524        H527   1.046       .  S
N524        H528   1.046       .  S
C529        C530   1.412       .  A
C529        C534   1.409       .  A
C529        H536   1.081       .  S
C530        C531   1.413       .  A
C531        C532   1.406       .  A
C531        N538   1.432       .  S
C532        C533   1.410       .  A
C532        H537   1.082       .  S
C533        C534   1.417       .  A
C534        N535   1.438       .  S
N535        H539   1.045       .  S
N535        H540   1.045       .  S
N538        H541   1.045       .  S
N538        H542   1.046       .  S
C543        C544   1.409       .  A
C543        C548   1.400       .  A
C543        H550   1.084       .  S
C544        C545   1.420       .  A
C545        C546   1.414       .  A
C545        N552   1.428       .  S
C546        C547   1.411       .  A
C546        H551   1.077       .  S
C547        C548   1.415       .  A
C548        N549   1.434       .  S
N549        H553   1.046       .  S
N549        H554   1.046       .  S
N552        H555   1.046       .  S
N552        H556   1.046       .  S
C557        C558   1.402       .  A
C557        C562   1.406       .  A
C557        H564   1.084       .  S
C558        C559   1.408       .  A
C559        C560   1.405       .  A
C559        N566   1.432       .  S
C560        C561   1.406       .  A
C560        H565   1.083       .  S
C561        C562   1.416       .  A
C562        N563   1.432       .  S
N563        H567   1.046       .  S
N563        H568   1.045       .  S
N566        H569   1.046       .  S
N566        H570   1.045       .  S
C571        C572   1.410       .  A
C571        C576   1.411       .  A
C571        H578   1.083       .  S
C572        C573   1.408       .  A
C573        C574   1.389       .  A
C573        N580   1.428       .  S
C574        C575   1.398       .  A
C574        H579   1.075       .  S
C575        C576   1.416       .  A
C576        N577   1.432       .  S
N577        H581   1.044       .  S
N577        H582   1.045       .  S
N580        H583   1.045       .  S
N580        H584   1.046       .  S
C585        C586   1.400       .  A
C585        C590   1.401       .  A
C585        H592   1.079       .  S
C586        C587   1.419       .  A
C587        C588   1.406       .  A
C587        N594   1.440       .  S
C588        C589   1.404       .  A
C588        H593   1.084       .  S
C589        C590   1.412       .  A
C590        N591   1.438       .  S
N591        H595   1.045       .  S
N591        H596   1.044       .  S
N594        H597   1.041       .  S
N594        H598   1.045       .  S
C599        C600   1.401       .  A
C599        C604   1.397   1_556  A
C599        H606   1.077       .  S
C600        C601   1.415       .  A
C601        C602   1.414   1_556  A
C601        N608   1.437       .  S
C602        C603   1.412       .  A
C602        H607   1.082       .  S
C603        C604   1.414       .  A
C604        N605   1.428       .  S
N605        H609   1.046       .  S
N605        H610   1.046       .  S
N608        H611   1.046       .  S
N608        H612   1.045       .  S
C613        C614   1.404       .  A
C613        C618   1.404       .  A
C613        H620   1.082       .  S
C614        C615   1.417       .  A
C615        C616   1.404       .  A
C615        N622   1.432       .  S
C616        C617   1.400       .  A
C616        H621   1.084       .  S
C617        C618   1.409       .  A
C618        N619   1.432       .  S
N619        H623   1.045       .  S
N619        H624   1.046       .  S
N622        H625   1.045       .  S
N622        H626   1.046       .  S
C627        C628   1.403       .  A
C627        C632   1.408   1_556  A
C627        H634   1.084       .  S
C628        C629   1.406       .  A
C629        C630   1.403   1_556  A
C629        N636   1.437       .  S
C630        C631   1.401       .  A
C630        H635   1.083       .  S
C631        C632   1.409       .  A
C632        N633   1.437       .  S
N633        H637   1.046       .  S
N633        H638   1.046       .  S
N636        H639   1.046       .  S
N636        H640   1.046       .  S
C641        C642   1.410       .  A
C641        C646   1.418       .  A
C641        H648   1.083       .  S
C642        C643   1.409       .  A
C643        C644   1.392       .  A
C643        N650   1.428       .  S
C644        C645   1.399       .  A
C644        H649   1.075       .  S
C645        C646   1.421       .  A
C646        N647   1.437       .  S
N647        H651   1.046       .  S
N647        H652   1.043       .  S
N650        H653   1.046       .  S
N650        H654   1.046       .  S
C655        C656   1.400       .  A
C655        C660   1.401       .  A
C655        H662   1.084       .  S
C656        C657   1.413       .  A
C657        C658   1.408       .  A
C657        N664   1.438       .  S
C658        C659   1.402       .  A
C658        H663   1.084       .  S
C659        C660   1.414       .  A
C660        N661   1.437       .  S
N661        H665   1.046       .  S
N661        H666   1.044       .  S
N664        H667   1.045       .  S
N664        H668   1.045       .  S
C669        C670   1.402       .  A
C669        C674   1.404   1_556  A
C669        H676   1.084       .  S
C670        C671   1.413       .  A
C671        C672   1.407   1_556  A
C671        N678   1.437       .  S
C672        C673   1.404       .  A
C672        H677   1.084       .  S
C673        C674   1.413       .  A
C674        N675   1.438       .  S
N675        H679   1.046       .  S
N675        H680   1.045       .  S
N678        H681   1.046       .  S
N678        H682   1.046       .  S
C683        C684   1.407       .  A
C683        C688   1.404       .  A
C683        H690   1.081       .  S
C684        C685   1.421       .  A
C685        C686   1.401       .  A
C685        N692   1.431       .  S
C686        C687   1.405       .  A
C686        H691   1.083       .  S
C687        C688   1.417       .  A
C688        N689   1.439       .  S
N689        H693   1.046       .  S
N689        H694   1.043       .  S
N692        H695   1.043       .  S
N692        H696   1.044       .  S
C697        C698   1.407       .  A
C697        C702   1.411       .  A
C697        H704   1.083       .  S
C698        C699   1.406       .  A
C699        C700   1.397       .  A
C699        N706   1.429       .  S
C700        C701   1.398       .  A
C700        H705   1.081       .  S
C701        C702   1.414       .  A
C702        N703   1.432       .  S
N703        H707   1.045       .  S
N703        H708   1.044       .  S
N706        H709   1.045       .  S
N706        H710   1.046       .  S
C711        C712   1.402       .  A
C711        C716   1.406       .  A
C711        H718   1.084       .  S
C712        C713   1.412       .  A
C713        C714   1.405       .  A
C713        N720   1.437       .  S
C714        C715   1.402       .  A
C714        H719   1.084       .  S
C715        C716   1.413       .  A
C716        N717   1.437       .  S
N717        H721   1.046       .  S
N717        H722   1.045       .  S
N720        H723   1.044       .  S
N720        H724   1.046       .  S
C725        C726   1.401       .  A
C725        C730   1.405   1_556  A
C725        H732   1.084       .  S
C726        C727   1.408       .  A
C727        C728   1.406   1_556  A
C727        N734   1.438       .  S
C728        C729   1.404       .  A
C728        H733   1.082       .  S
C729        C730   1.418       .  A
C730        N731   1.438       .  S
N731        H735   1.046       .  S
N731        H736   1.043       .  S
N734        H737   1.046       .  S
N734        H738   1.046       .  S
C739        C740   1.411       .  A
C739        C744   1.410       .  A
C739        H746   1.080       .  S
C740        C741   1.413       .  A
C741        C742   1.406       .  A
C741        N748   1.433       .  S
C742        C743   1.414       .  A
C742        H747   1.082       .  S
C743        C744   1.427       .  A
C744        N745   1.432       .  S
N745        H749   1.045       .  S
N745        H750   1.041       .  S
N748        H751   1.046       .  S
N748        H752   1.046       .  S
C753        C754   1.410       .  A
C753        C758   1.402       .  A
C753        H760   1.084       .  S
C754        C755   1.422       .  A
C755        C756   1.406       .  A
C755        N762   1.427       .  S
C756        C757   1.406       .  A
C756        H761   1.076       .  S
C757        C758   1.415       .  A
C758        N759   1.434       .  S
N759        H763   1.046       .  S
N759        H764   1.046       .  S
N762        H765   1.046       .  S
N762        H766   1.046       .  S
C767        C768   1.407       .  A
C767        C772   1.405   1_556  A
C767        H774   1.084       .  S
C768        C769   1.411       .  A
C769        C770   1.395   1_556  A
C769        N776   1.425       .  S
C770        C771   1.399       .  A
C770        H775   1.082       .  S
C771        C772   1.414       .  A
C772        N773   1.432       .  S
N773        H777   1.044       .  S
N773        H778   1.044       .  S
N776        H779   1.044       .  S
N776        H780   1.043       .  S
C781        C782   1.407       .  A
C781        C786   1.407       .  A
C781        H788   1.084       .  S
C782        C783   1.414       .  A
C783        C784   1.410       .  A
C783        N790   1.437       .  S
C784        C785   1.403       .  A
C784        H789   1.084       .  S
C785        C786   1.410       .  A
C786        N787   1.432       .  S
N787        H791   1.046       .  S
N787        H792   1.045       .  S
N790        H793   1.045       .  S
N790        H794   1.046       .  S
C795        C796   1.395       .  A
C795        C800   1.382       .  A
C795        H802   1.076       .  S
C796        C797   1.415       .  A
C797        C798   1.419       .  A
C797        N804   1.431       .  S
C798        C799   1.410       .  A
C798        H803   1.083       .  S
C799        C800   1.405       .  A
C800        N801   1.425       .  S
N801        H805   1.046       .  S
N801        H806   1.046       .  S
N804        H807   1.045       .  S
N804        H808   1.046       .  S
C809        C810   1.402       .  A
C809        C814   1.406       .  A
C809        H816   1.084       .  S
C810        C811   1.410       .  A
C811        C812   1.408       .  A
C811        N818   1.433       .  S
C812        C813   1.399       .  A
C812        H817   1.084       .  S
C813        C814   1.410       .  A
C814        N815   1.433       .  S
N815        H819   1.045       .  S
N815        H820   1.045       .  S
N818        H821   1.045       .  S
N818        H822   1.046       .  S
C823        C824   1.406       .  A
C823        C828   1.404   1_556  A
C823        H830   1.084       .  S
C824        C825   1.414       .  A
C825        C826   1.408   1_556  A
C825        N832   1.438       .  S
C826        C827   1.403       .  A
C826        H831   1.084       .  S
C827        C828   1.406       .  A
C828        N829   1.432       .  S
N829        H833   1.046       .  S
N829        H834   1.046       .  S
N832        H835   1.046       .  S
N832        H836   1.046       .  S
C837        C838   1.404       .  A
C837        C842   1.401       .  A
C837        H844   1.084       .  S
C838        C839   1.415       .  A
C839        C840   1.407       .  A
C839        N846   1.438       .  S
C840        C841   1.405       .  A
C840        H845   1.083       .  S
C841        C842   1.410       .  A
C842        N843   1.433       .  S
N843        H847   1.046       .  S
N843        H848   1.046       .  S
N846        H849   1.046       .  S
N846        H850   1.046       .  S
C851        C852   1.402       .  A
C851        C856   1.400       .  A
C851        H858   1.084       .  S
C852        C853   1.416       .  A
C853        C854   1.404       .  A
C853        N860   1.432       .  S
C854        C855   1.406       .  A
C854        H859   1.084       .  S
C855        C856   1.413       .  A
C856        N857   1.433       .  S
N857        H861   1.046       .  S
N857        H862   1.045       .  S
N860        H863   1.043       .  S
N860        H864   1.046       .  S
C865        C866   1.412       .  A
C865        C870   1.404       .  A
C865        H872   1.083       .  S
C866        C867   1.417       .  A
C867        C868   1.407       .  A
C867        N874   1.429       .  S
C868        C869   1.411       .  A
C868        H873   1.076       .  S
C869        C870   1.414       .  A
C870        N871   1.433       .  S
N871        H875   1.046       .  S
N871        H876   1.046       .  S
N874        H877   1.046       .  S
N874        H878   1.046       .  S
C879        C880   1.405       .  A
C879        C884   1.401       .  A
C879        H886   1.084       .  S
C880        C881   1.416       .  A
C881        C882   1.415       .  A
C881        N888   1.437       .  S
C882        C883   1.407       .  A
C882        H887   1.083       .  S
C883        C884   1.421       .  A
C884        N885   1.433       .  S
N885        H889   1.045       .  S
N885        H890   1.045       .  S
N888        H891   1.046       .  S
N888        H892   1.045       .  S
C893        C894   1.407       .  A
C893        C898   1.401       .  A
C893        H900   1.084       .  S
C894        C895   1.410       .  A
C895        C896   1.404       .  A
C895        N902   1.432       .  S
C896        C897   1.404       .  A
C896        H901   1.084       .  S
C897        C898   1.413       .  A
C898        N899   1.433       .  S
N899        H903   1.042       .  S
N899        H904   1.045       .  S
N902        H905   1.046       .  S
N902        H906   1.046       .  S
C907        C908   1.406       .  A
C907        C912   1.405       .  A
C907        H914   1.084       .  S
C908        C909   1.412       .  A
C909        C910   1.414       .  A
C909        N916   1.431       .  S
C910        C911   1.409       .  A
C910        H915   1.083       .  S
C911        C912   1.413       .  A
C912        N913   1.432       .  S
N913        H917   1.045       .  S
N913        H918   1.046       .  S
N916        H919   1.045       .  S
N916        H920   1.046       .  S
C921        C922   1.406       .  A
C921        C926   1.410       .  A
C921        H928   1.083       .  S
C922        C923   1.412       .  A
C923        C924   1.407       .  A
C923        N930   1.432       .  S
C924        C925   1.406       .  A
C924        H929   1.084       .  S
C925        C926   1.416       .  A
C926        N927   1.438       .  S
N927        H931   1.046       .  S
N927        H932   1.046       .  S
N930        H933   1.046       .  S
N930        H934   1.045       .  S
C935        C936   1.405       .  A
C935        C940   1.407       .  A
C935        H942   1.084       .  S
C936        C937   1.415       .  A
C937        C938   1.403       .  A
C937        N944   1.432       .  S
C938        C939   1.402       .  A
C938        H943   1.084       .  S
C939        C940   1.410       .  A
C940        N941   1.432       .  S
N941        H945   1.045       .  S
N941        H946   1.045       .  S
N944        H947   1.046       .  S
N944        H948   1.043       .  S
C949        C950   1.408       .  A
C949        C954   1.408       .  A
C949        H956   1.077       .  S
C950        C951   1.413       .  A
C951        C952   1.404       .  A
C951        N958   1.433       .  S
C952        C953   1.412       .  A
C952        H957   1.084       .  S
C953        C954   1.431       .  A
C954        N955   1.426       .  S
N955        H959   1.044       .  S
N955        H960   1.045       .  S
N958        H961   1.046       .  S
N958        H962   1.046       .  S
C963        C964   1.406       .  A
C963        C968   1.415       .  A
C963        H970   1.084       .  S
C964        C965   1.406       .  A
C965        C966   1.397       .  A
C965        N972   1.432       .  S
C966        C967   1.404       .  A
C966        H971   1.084       .  S
C967        C968   1.417       .  A
C968        N969   1.437       .  S
N969        H973   1.046       .  S
N969        H974   1.046       .  S
N972        H975   1.045       .  S
N972        H976   1.046       .  S
C977        C978   1.402       .  A
C977        C982   1.408       .  A
C977        H984   1.084       .  S
C978        C979   1.412       .  A
C979        C980   1.409       .  A
C979        N986   1.438       .  S
C980        C981   1.407       .  A
C980        H985   1.082       .  S
C981        C982   1.418       .  A
C982        N983   1.432       .  S
N983        H987   1.046       .  S
N983        H988   1.046       .  S
N986        H989   1.046       .  S
N986        H990   1.046       .  S
C991        C992   1.406       .  A
C991        C996   1.405       .  A
C991        H998   1.080       .  S
C992        C993   1.414       .  A
C993        C994   1.400       .  A
C993       N1000   1.433       .  S
C994        C995   1.410       .  A
C994        H999   1.082       .  S
C995        C996   1.430       .  A
C996        N997   1.431       .  S
N997       H1001   1.042       .  S
N997       H1002   1.045       .  S
N1000      H1003   1.046       .  S
N1000      H1004   1.046       .  S
C1005      C1006   1.403       .  A
C1005      C1010   1.398       .  A
C1005      H1012   1.083       .  S
C1006      C1007   1.413       .  A
C1007      C1008   1.409       .  A
C1007      N1014   1.437       .  S
C1008      C1009   1.405       .  A
C1008      H1013   1.083       .  S
C1009      C1010   1.418       .  A
C1010      N1011   1.433       .  S
N1011      H1015   1.046       .  S
N1011      H1016   1.045       .  S
N1014      H1017   1.046       .  S
N1014      H1018   1.046       .  S
C1019      C1020   1.404       .  A
C1019      C1024   1.404       .  A
C1019      H1026   1.083       .  S
C1020      C1021   1.417       .  A
C1021      C1022   1.409       .  A
C1021      N1028   1.438       .  S
C1022      C1023   1.400       .  A
C1022      H1027   1.084       .  S
C1023      C1024   1.408       .  A
C1024      N1025   1.438       .  S
N1025      H1029   1.045       .  S
N1025      H1030   1.045       .  S
N1028      H1031   1.046       .  S
N1028      H1032   1.046       .  S
C1033      C1034   1.403       .  A
C1033      C1038   1.404       .  A
C1033      H1040   1.084       .  S
C1034      C1035   1.408       .  A
C1035      C1036   1.406       .  A
C1035      N1042   1.432       .  S
C1036      C1037   1.406       .  A
C1036      H1041   1.084       .  S
C1037      C1038   1.413       .  A
C1038      N1039   1.438       .  S
N1039      H1043   1.046       .  S
N1039      H1044   1.045       .  S
N1042      H1045   1.046       .  S
N1042      H1046   1.046       .  S
C1047      C1048   1.410       .  A
C1047      C1052   1.406       .  A
C1047      H1054   1.083       .  S
C1048      C1049   1.421       .  A
C1049      C1050   1.412       .  A
C1049      N1056   1.430       .  S
C1050      C1051   1.411       .  A
C1050      H1055   1.077       .  S
C1051      C1052   1.415       .  A
C1052      N1053   1.433       .  S
N1053      H1057   1.045       .  S
N1053      H1058   1.046       .  S
N1056      H1059   1.046       .  S
N1056      H1060   1.046       .  S
C1061      C1062   1.405       .  A
C1061      C1066   1.397       .  A
C1061      H1068   1.082       .  S
C1062      C1063   1.410       .  A
C1063      C1064   1.406       .  A
C1063      N1070   1.431       .  S
C1064      C1065   1.405       .  A
C1064      H1069   1.084       .  S
C1065      C1066   1.417       .  A
C1066      N1067   1.433       .  S
N1067      H1071   1.045       .  S
N1067      H1072   1.045       .  S
N1070      H1073   1.046       .  S
N1070      H1074   1.046       .  S
C1075      C1076   1.402       .  A
C1075      C1080   1.404       .  A
C1075      H1082   1.084       .  S
C1076      C1077   1.408       .  A
C1077      C1078   1.402       .  A
C1077      N1084   1.432       .  S
C1078      C1079   1.408       .  A
C1078      H1083   1.084       .  S
C1079      C1080   1.411       .  A
C1080      N1081   1.432       .  S
N1081      H1085   1.046       .  S
N1081      H1086   1.046       .  S
N1084      H1087   1.045       .  S
N1084      H1088   1.046       .  S
C1089      C1090   1.405   1_545  A
C1089      C1094   1.408       .  A
C1089      H1096   1.084   1_545  S
C1090      C1091   1.410   1_565  A
C1091      C1092   1.403       .  A
C1091      N1098   1.432   1_545  S
C1092      C1093   1.402       .  A
C1092      H1097   1.084       .  S
C1093      C1094   1.412       .  A
C1094      N1095   1.432       .  S
N1095      H1099   1.046       .  S
N1095      H1100   1.046       .  S
N1098      H1101   1.045   1_565  S
N1098      H1102   1.046       .  S
C1103      C1104   1.405       .  A
C1103      C1108   1.407       .  A
C1103      H1110   1.083       .  S
C1104      C1105   1.412       .  A
C1105      C1106   1.405       .  A
C1105      N1112   1.438       .  S
C1106      C1107   1.404       .  A
C1106      H1111   1.084       .  S
C1107      C1108   1.414       .  A
C1108      N1109   1.438       .  S
N1109      H1113   1.046       .  S
N1109      H1114   1.046       .  S
N1112      H1115   1.045       .  S
N1112      H1116   1.046       .  S
C1117      C1118   1.407       .  A
C1117      C1122   1.409       .  A
C1117      H1124   1.081       .  S
C1118      C1119   1.417       .  A
C1119      C1120   1.407       .  A
C1119      N1126   1.432       .  S
C1120      C1121   1.406       .  A
C1120      H1125   1.082       .  S
C1121      C1122   1.422       .  A
C1122      N1123   1.438       .  S
N1123      H1127   1.046       .  S
N1123      H1128   1.045       .  S
N1126      H1129   1.046       .  S
N1126      H1130   1.046       .  S
C1131      C1132   1.404       .  A
C1131      C1136   1.407       .  A
C1131      H1138   1.081       .  S
C1132      C1133   1.415       .  A
C1133      C1134   1.411       .  A
C1133      N1140   1.432       .  S
C1134      C1135   1.407   1_545  A
C1134      H1139   1.083   1_545  S
C1135      C1136   1.416   1_565  A
C1136      N1137   1.430   1_545  S
N1137      H1141   1.046   1_565  S
N1137      H1142   1.046   1_565  S
N1140      H1143   1.046       .  S
N1140      H1144   1.046       .  S
C1145      C1146   1.402       .  A
C1145      C1150   1.404       .  A
C1145      H1152   1.083       .  S
C1146      C1147   1.412       .  A
C1147      C1148   1.402       .  A
C1147      N1154   1.432       .  S
C1148      C1149   1.407       .  A
C1148      H1153   1.084       .  S
C1149      C1150   1.414       .  A
C1150      N1151   1.433       .  S
N1151      H1155   1.046       .  S
N1151      H1156   1.046       .  S
N1154      H1157   1.046       .  S
N1154      H1158   1.044       .  S
C1159      C1160   1.410       .  A
C1159      C1164   1.406       .  A
C1159      H1166   1.084       .  S
C1160      C1161   1.424       .  A
C1161      C1162   1.418       .  A
C1161      N1168   1.435       .  S
C1162      C1163   1.411       .  A
C1162      H1167   1.077       .  S
C1163      C1164   1.416       .  A
C1164      N1165   1.433       .  S
N1165      H1169   1.046       .  S
N1165      H1170   1.046       .  S
N1168      H1171   1.045       .  S
N1168      H1172   1.046       .  S
C1173      C1174   1.403       .  A
C1173      C1178   1.399       .  A
C1173      H1180   1.084       .  S
C1174      C1175   1.415       .  A
C1175      C1176   1.411       .  A
C1175      N1182   1.437       .  S
C1176      C1177   1.406       .  A
C1176      H1181   1.083       .  S
C1177      C1178   1.412       .  A
C1178      N1179   1.433       .  S
N1179      H1183   1.046       .  S
N1179      H1184   1.046       .  S
N1182      H1185   1.046       .  S
N1182      H1186   1.046       .  S
C1187      C1188   1.403       .  A
C1187      C1192   1.401       .  A
C1187      H1194   1.084       .  S
C1188      C1189   1.411       .  A
C1189      C1190   1.405       .  A
C1189      N1196   1.432       .  S
C1190      C1191   1.405       .  A
C1190      H1195   1.084       .  S
C1191      C1192   1.410       .  A
C1192      N1193   1.432       .  S
N1193      H1197   1.046       .  S
N1193      H1198   1.046       .  S
N1196      H1199   1.046       .  S
N1196      H1200   1.046       .  S
C1201      C1202   1.406       .  A
C1201      C1206   1.404       .  A
C1201      H1208   1.083       .  S
C1202      C1203   1.417       .  A
C1203      C1204   1.404       .  A
C1203      N1210   1.438       .  S
C1204      C1205   1.396       .  A
C1204      H1209   1.082       .  S
C1205      C1206   1.408       .  A
C1206      N1207   1.438       .  S
N1207      H1211   1.046       .  S
N1207      H1212   1.045       .  S
N1210      H1213   1.046       .  S
N1210      H1214   1.046       .  S
C1215      C1216   1.407       .  A
C1215      C1220   1.413       .  A
C1215      H1222   1.083       .  S
C1216      C1217   1.415       .  A
C1217      C1218   1.406       .  A
C1217      N1224   1.438       .  S
C1218      C1219   1.404       .  A
C1218      H1223   1.084       .  S
C1219      C1220   1.415       .  A
C1220      N1221   1.437       .  S
N1221      H1225   1.046       .  S
N1221      H1226   1.046       .  S
N1224      H1227   1.046       .  S
N1224      H1228   1.046       .  S
C1229      C1230   1.403       .  A
C1229      C1234   1.404       .  A
C1229      H1236   1.084       .  S
C1230      C1231   1.413       .  A
C1231      C1232   1.407       .  A
C1231      N1238   1.438       .  S
C1232      C1233   1.405   1_545  A
C1232      H1237   1.084   1_545  S
C1233      C1234   1.412   1_565  A
C1234      N1235   1.433   1_545  S
N1235      H1239   1.045   1_565  S
N1235      H1240   1.046   1_565  S
N1238      H1241   1.046       .  S
N1238      H1242   1.046       .  S
C1243      C1244   1.408       .  A
C1243      C1248   1.409       .  A
C1243      H1250   1.083       .  S
C1244      C1245   1.414       .  A
C1245      C1246   1.403       .  A
C1245      N1252   1.438       .  S
C1246      C1247   1.402       .  A
C1246      H1251   1.083       .  S
C1247      C1248   1.410       .  A
C1248      N1249   1.437       .  S
N1249      H1253   1.046       .  S
N1249      H1254   1.046       .  S
N1252      H1255   1.046       .  S
N1252      H1256   1.046       .  S
C1257      C1258   1.407       .  A
C1257      C1262   1.404       .  A
C1257      H1264   1.084       .  S
C1258      C1259   1.413       .  A
C1259      C1260   1.406       .  A
C1259      N1266   1.432       .  S
C1260      C1261   1.402       .  A
C1260      H1265   1.084       .  S
C1261      C1262   1.414       .  A
C1262      N1263   1.438       .  S
N1263      H1267   1.046       .  S
N1263      H1268   1.043       .  S
N1266      H1269   1.046       .  S
N1266      H1270   1.046       .  S
C1271      C1272   1.401       .  A
C1271      C1276   1.403   1_655  A
C1271      H1278   1.084       .  S
C1272      C1273   1.414       .  A
C1273      C1274   1.411   1_655  A
C1273      N1280   1.437       .  S
C1274      C1275   1.408       .  A
C1274      H1279   1.083       .  S
C1275      C1276   1.414       .  A
C1276      N1277   1.430       .  S
N1277      H1281   1.046       .  S
N1277      H1282   1.046       .  S
N1280      H1283   1.046       .  S
N1280      H1284   1.046       .  S
C1285      C1286   1.403       .  A
C1285      C1290   1.400       .  A
C1285      H1292   1.084       .  S
C1286      C1287   1.411       .  A
C1287      C1288   1.404       .  A
C1287      N1294   1.432       .  S
C1288      C1289   1.403       .  A
C1288      H1293   1.084       .  S
C1289      C1290   1.418       .  A
C1290      N1291   1.433       .  S
N1291      H1295   1.046       .  S
N1291      H1296   1.044       .  S
N1294      H1297   1.046       .  S
N1294      H1298   1.045       .  S
C1299      C1300   1.410       .  A
C1299      C1304   1.412       .  A
C1299      H1306   1.079       .  S
C1300      C1301   1.416       .  A
C1301      C1302   1.402       .  A
C1301      N1308   1.433       .  S
C1302      C1303   1.408       .  A
C1302      H1307   1.083       .  S
C1303      C1304   1.420       .  A
C1304      N1305   1.431       .  S
N1305      H1309   1.046       .  S
N1305      H1310   1.046       .  S
N1308      H1311   1.046       .  S
N1308      H1312   1.046       .  S
C1313      C1314   1.405       .  A
C1313      C1318   1.405   1_455  A
C1313      H1320   1.084       .  S
C1314      C1315   1.415       .  A
C1315      C1316   1.404   1_455  A
C1315      N1322   1.432       .  S
C1316      C1317   1.403       .  A
C1316      H1321   1.084       .  S
C1317      C1318   1.414       .  A
C1318      N1319   1.432       .  S
N1319      H1323   1.045       .  S
N1319      H1324   1.046       .  S
N1322      H1325   1.045       .  S
N1322      H1326   1.044       .  S
C1327      C1328   1.407       .  A
C1327      C1332   1.409       .  A
C1327      H1334   1.083       .  S
C1328      C1329   1.420       .  A
C1329      C1330   1.399       .  A
C1329      N1336   1.432       .  S
C1330      C1331   1.401       .  A
C1330      H1335   1.084       .  S
C1331      C1332   1.411       .  A
C1332      N1333   1.437       .  S
N1333      H1337   1.045       .  S
N1333      H1338   1.044       .  S
N1336      H1339   1.045       .  S
N1336      H1340   1.045       .  S
C1341      C1342   1.410       .  A
C1341      C1346   1.408       .  A
C1341      H1348   1.082       .  S
C1342      C1343   1.422       .  A
C1343      C1344   1.406       .  A
C1343      N1350   1.437       .  S
C1344      C1345   1.410       .  A
C1344      H1349   1.083       .  S
C1345      C1346   1.418       .  A
C1346      N1347   1.438       .  S
N1347      H1351   1.046       .  S
N1347      H1352   1.045       .  S
N1350      H1353   1.043       .  S
N1350      H1354   1.045       .  S
C1355      C1356   1.406       .  A
C1355      C1360   1.410       .  A
C1355      H1362   1.083       .  S
C1356      C1357   1.413       .  A
C1357      C1358   1.402       .  A
C1357      N1364   1.438       .  S
C1358      C1359   1.404       .  A
C1358      H1363   1.083       .  S
C1359      C1360   1.415       .  A
C1360      N1361   1.437       .  S
N1361      H1365   1.046       .  S
N1361      H1366   1.045       .  S
N1364      H1367   1.046       .  S
N1364      H1368   1.046       .  S
C1369      C1370   1.402       .  A
C1369      C1374   1.407       .  A
C1369      H1376   1.084       .  S
C1370      C1371   1.411       .  A
C1371      C1372   1.404       .  A
C1371      N1378   1.433       .  S
C1372      C1373   1.405       .  A
C1372      H1377   1.083       .  S
C1373      C1374   1.417       .  A
C1374      N1375   1.432       .  S
N1375      H1379   1.046       .  S
N1375      H1380   1.046       .  S
N1378      H1381   1.046       .  S
N1378      H1382   1.046       .  S
C1383      C1384   1.407       .  A
C1383      C1388   1.410       .  A
C1383      H1390   1.083       .  S
C1384      C1385   1.414       .  A
C1385      C1386   1.403       .  A
C1385      N1392   1.436       .  S
C1386      C1387   1.403       .  A
C1386      H1391   1.083       .  S
C1387      C1388   1.415       .  A
C1388      N1389   1.438       .  S
N1389      H1393   1.046       .  S
N1389      H1394   1.046       .  S
N1392      H1395   1.044       .  S
N1392      H1396   1.046       .  S
C1397      C1398   1.403       .  A
C1397      C1402   1.401       .  A
C1397      H1404   1.084       .  S
C1398      C1399   1.413       .  A
C1399      C1400   1.409       .  A
C1399      N1406   1.437       .  S
C1400      C1401   1.405       .  A
C1400      H1405   1.083       .  S
C1401      C1402   1.414       .  A
C1402      N1403   1.433       .  S
N1403      H1407   1.046       .  S
N1403      H1408   1.046       .  S
N1406      H1409   1.046       .  S
N1406      H1410   1.046       .  S
C1411      C1412   1.404       .  A
C1411      C1416   1.405   1_455  A
C1411      H1418   1.084       .  S
C1412      C1413   1.409       .  A
C1413      C1414   1.404   1_455  A
C1413      N1420   1.432       .  S
C1414      C1415   1.405       .  A
C1414      H1419   1.084       .  S
C1415      C1416   1.414       .  A
C1416      N1417   1.438       .  S
N1417      H1421   1.046       .  S
N1417      H1422   1.045       .  S
N1420      H1423   1.046       .  S
N1420      H1424   1.046       .  S
C1425      C1426   1.404       .  A
C1425      C1430   1.410       .  A
C1425      H1432   1.084       .  S
C1426      C1427   1.411       .  A
C1427      C1428   1.406       .  A
C1427      N1434   1.438       .  S
C1428      C1429   1.404       .  A
C1428      H1433   1.084       .  S
C1429      C1430   1.415       .  A
C1430      N1431   1.438       .  S
N1431      H1435   1.045       .  S
N1431      H1436   1.046       .  S
N1434      H1437   1.046       .  S
N1434      H1438   1.046       .  S
C1439      C1440   1.405       .  A
C1439      C1444   1.403       .  A
C1439      H1446   1.084       .  S
C1440      C1441   1.414       .  A
C1441      C1442   1.405       .  A
C1441      N1448   1.433       .  S
C1442      C1443   1.399       .  A
C1442      H1447   1.083       .  S
C1443      C1444   1.405       .  A
C1444      N1445   1.432       .  S
N1445      H1449   1.045       .  S
N1445      H1450   1.045       .  S
N1448      H1451   1.046       .  S
N1448      H1452   1.046       .  S
