geometry optimzed in LAMMPS
_audit_creation_date              2020-11-30 
_audit_creation_method            'lammps2cif' 
_symmetry_space_group_name_H-M    'P1' 
_symmetry_Int_Tables_number       1 
_symmetry_cell_setting            triclinic 
loop_ 
_symmetry_equiv_pos_as_xyz 
  x,y,z 
_cell_length_a                    25.671747999202044 
_cell_length_b                    25.156457276106366 
_cell_length_c                    28.965293054523723 
_cell_angle_alpha                 90.5245391825907 
_cell_angle_beta                  92.5337708837415 
_cell_angle_gamma                 90.06203117064977 
loop_ 
_atom_site_label 
_atom_site_type_symbol 
_atom_site_fract_x 
_atom_site_fract_y 
_atom_site_fract_z 
_atom_site_charge 
N1          N  0.24113414  0.76941737  0.31455035    -0.05840
N2          N  0.21217212  0.81272020  0.31923445    -0.57960
N3          N  0.31350937  0.69069991  0.25048802    -0.05520
N4          N  0.33198817  0.68991010  0.20867243    -0.60090
N5          N  0.26500391  0.67413784  0.24915505    -0.05120
N6          N  0.24905042  0.66228599  0.20633794    -0.57930
N7          N  0.29103097  0.78268577  0.31742326    -0.04790
N8          N  0.29685552  0.83445598  0.32365130    -0.60440
C9          C  0.24759274  0.85282106  0.32501730     0.96340
C10         C  0.29147369  0.67173588  0.18176835     0.96120
N11         N  0.41588553  0.62493738  0.34703778    -0.06020
N12         N  0.44515448  0.58451000  0.33409032    -0.58540
N13         N  0.39696808  0.75239010  0.37531283    -0.04140
N14         N  0.43460152  0.78838880  0.37462724    -0.59790
N15         N  0.40438871  0.72177901  0.41159946    -0.06050
N16         N  0.44628593  0.73699436  0.43625184    -0.58800
N17         N  0.40770786  0.65743965  0.31204066    -0.03790
N18         N  0.43066388  0.64037956  0.27508083    -0.59880
Mn19       Mn  0.35252883  0.72226823  0.31369569     1.18440
C20         C  0.45400385  0.59536949  0.28921000     0.98420
C21         C  0.46435091  0.77895285  0.41338269     0.99080
N22         N  0.20105485  0.59297425  0.31107038    -0.06070
N23         N  0.18934794  0.55674184  0.27832536    -0.62380
N24         N  0.17436350  0.66618874  0.40598432    -0.04880
N25         N  0.13145260  0.66858903  0.42973994    -0.63060
N26         N  0.16737410  0.69244723  0.36718537    -0.05580
N27         N  0.12045851  0.71371509  0.36402904    -0.62650
N28         N  0.20779646  0.56885664  0.35116572    -0.04480
N29         N  0.20111271  0.51719373  0.34685370    -0.63340
Mn30       Mn  0.21732001  0.68231133  0.30911551     1.10660
C31         C  0.18941078  0.50974554  0.30170308     0.99640
C32         C  0.09869941  0.69912166  0.40330970     0.99720
N33         N  0.32805536  0.65708848  0.47463603    -0.05590
N34         N  0.34500384  0.66843845  0.51738680    -0.60960
N35         N  0.29956027  0.54720104  0.42106786    -0.04910
N36         N  0.29451225  0.50187776  0.44317134    -0.57690
N37         N  0.34915639  0.55868685  0.41742228    -0.06220
N38         N  0.37846468  0.52139494  0.43671138    -0.60530
N39         N  0.27739806  0.64724869  0.47365403    -0.05200
N40         N  0.25928637  0.65132334  0.51540332    -0.57710
Mn41       Mn  0.37514570  0.64037689  0.41285161     1.20190
Mn42       Mn  0.23878424  0.60800971  0.41358702     1.10090
Cl43       Cl  0.29571667  0.66394690  0.36279908    -0.85680
C44         C  0.30151215  0.66533741  0.54203606     0.96650
C45         C  0.34407338  0.48597154  0.45191344     0.96450
N46         N  0.31858817  0.65564313  0.97495775    -0.05840
N47         N  0.33443199  0.66939539  0.01736256    -0.57960
N48         N  0.29300140  0.54467134  0.92001684    -0.05520
N49         N  0.28737274  0.49647144  0.93686948    -0.60090
N50         N  0.34266153  0.55690787  0.91844495    -0.05120
N51         N  0.37162488  0.51731463  0.93423660    -0.57930
N52         N  0.26821883  0.64462045  0.97332727    -0.04790
N53         N  0.24914257  0.65009447  0.01467257    -0.60440
C54         C  0.29067471  0.66634619  0.04139154     0.96340
C55         C  0.33678769  0.47961570  0.94464928     0.96120
N56         N  0.19752359  0.58883113  0.80887553    -0.06020
N57         N  0.18782780  0.55221441  0.77603653    -0.58540
N58         N  0.16736504  0.66259600  0.90298794    -0.04140
N59         N  0.12453171  0.66604551  0.92672612    -0.59790
N60         N  0.16078895  0.68810363  0.86373213    -0.06050
N61         N  0.11403498  0.70985922  0.86023538    -0.58800
N62         N  0.20276969  0.56515658  0.84928576    -0.03790
N63         N  0.19697713  0.51338472  0.84508588    -0.59880
Mn64       Mn  0.23177113  0.60475487  0.91219993     1.18440
C65         C  0.18745165  0.50544510  0.79968382     0.98420
C66         C  0.09209023  0.69630112  0.89980692     0.99080
N67         N  0.41449764  0.62608839  0.85275885    -0.06070
N68         N  0.45303490  0.59270961  0.84467187    -0.62380
N69         N  0.38950075  0.75141300  0.87830346    -0.04880
N70         N  0.42801126  0.78645498  0.87769641    -0.63060
N71         N  0.39558417  0.72147260  0.91520424    -0.05580
N72         N  0.43725890  0.73638187  0.94027147    -0.62650
N73         N  0.40634479  0.65733528  0.81693399    -0.04480
N74         N  0.43837307  0.64632163  0.78405199    -0.63340
Mn75       Mn  0.36821895  0.63949873  0.91561090     1.10660
C76         C  0.46738135  0.60647881  0.80177042     0.99640
C77         C  0.45683624  0.77722794  0.91702141     0.99720
N78         N  0.23584672  0.76505580  0.81216380    -0.05590
N79         N  0.20632660  0.80810562  0.81574536    -0.60960
N80         N  0.31270851  0.68628240  0.75174082    -0.04910
N81         N  0.33387345  0.68512449  0.71107030    -0.57690
N82         N  0.26414170  0.66981757  0.74821138    -0.06220
N83         N  0.25097058  0.65763433  0.70473482    -0.60530
N84         N  0.28555718  0.77871026  0.81647252    -0.05200
N85         N  0.29077302  0.83049653  0.82263239    -0.57710
Mn86       Mn  0.21313700  0.67806250  0.80672275     1.20190
Mn87       Mn  0.34825266  0.71952464  0.81556902     1.10090
Cl88       Cl  0.29023346  0.66077365  0.86272467    -0.85680
C89         C  0.24133037  0.84841723  0.82241437     0.96650
C90         C  0.29516773  0.66678768  0.68230805     0.96450
N91         N  0.86444841  0.75039810  0.94084385    -0.05840
N92         N  0.89658450  0.73150090  0.90997600    -0.57960
N93         N  0.79706232  0.73402298  0.03629672    -0.05520
N94         N  0.79392646  0.69385155  0.06500032    -0.60090
N95         N  0.76934302  0.72428026  0.99782177    -0.05120
N96         N  0.74659522  0.67741225  0.99976452    -0.57930
N97         N  0.89063820  0.75948417  0.98032675    -0.04790
N98         N  0.94015376  0.74726201  0.97742961    -0.60440
C99         C  0.94345358  0.72970338  0.93380034     0.96340
C100        C  0.76182618  0.65947713  0.04192191     0.96120
N101        N  0.81183934  0.88782255  0.09681771    -0.06020
N102        N  0.80045382  0.90548352  0.13831916    -0.58540
N103        N  0.91808866  0.85620659  0.04390197    -0.04140
N104        N  0.96587990  0.84970523  0.06172594    -0.59790
N105        N  0.90709698  0.90699565  0.04006350    -0.06050
N106        N  0.94724477  0.93594737  0.05521061    -0.58800
N107        N  0.82195520  0.83650549  0.09824787    -0.03790
N108        N  0.81786522  0.81825828  0.14042128    -0.59880
Mn109      Mn  0.85673083  0.79582592  0.04018975     1.18440
C110        C  0.80381302  0.86139598  0.16475123     0.98420
C111        C  0.98393380  0.89975784  0.06761774     0.99080
N112        N  0.69496259  0.79683314  0.93351598    -0.06070
N113        N  0.65103989  0.76891784  0.93209892    -0.62380
N114        N  0.77497212  0.86791322  0.87138859    -0.04880
N115        N  0.77743943  0.88706956  0.82932789    -0.63060
N116        N  0.78847180  0.81759053  0.87225889    -0.05580
N117        N  0.80014716  0.80117073  0.83047463    -0.62650
N118        N  0.68399067  0.84800592  0.93305856    -0.04480
N119        N  0.63328395  0.85612068  0.93120434    -0.63340
Mn120      Mn  0.77895624  0.77055352  0.93500086     1.10660
C121        C  0.61320268  0.80675564  0.93082665     0.99640
C122        C  0.79354702  0.84522266  0.80441338     0.99720
N123        N  0.83926782  0.97457897  0.96691935    -0.05590
N124        N  0.87799603  0.00569556  0.95497613    -0.60960
N125        N  0.71482987  0.95033527  0.99077391    -0.04910
N126        N  0.67344651  0.98137311  0.99047115    -0.57690
N127        N  0.74489374  0.95959858  0.02788433    -0.06220
N128        N  0.72426871  0.99663521  0.05371431    -0.60530
N129        N  0.80757031  0.96520472  0.93077717    -0.05200
N130        N  0.82351711  0.98928754  0.89389975    -0.57710
Mn131      Mn  0.82607602  0.93367436  0.03334322     1.20190
Mn132      Mn  0.74438595  0.90839933  0.93130128     1.10090
Cl133      Cl  0.80119300  0.85186612  0.98515253    -0.85680
C134        C  0.86698412  0.01447457  0.90941912     0.96650
C135        C  0.67947029  0.00908151  0.03039265     0.96450
N136        N  0.86879430  0.74875600  0.43839212    -0.05840
N137        N  0.90245089  0.73247641  0.40770844    -0.57960
N138        N  0.79507373  0.72680031  0.52989486    -0.05520
N139        N  0.78710946  0.68458040  0.55553818    -0.60090
N140        N  0.76947321  0.72175804  0.48971695    -0.05120
N141        N  0.74322101  0.67669341  0.48741070    -0.57930
N142        N  0.89286061  0.75284400  0.47946087    -0.04790
N143        N  0.94228598  0.73985385  0.47784829    -0.60440
C144        C  0.94784913  0.72689458  0.43338197     0.96340
C145        C  0.75410089  0.65434900  0.52870951     0.96120
N146        N  0.81640031  0.87851188  0.59801305    -0.06020
N147        N  0.80428144  0.89527821  0.63958044    -0.58540
N148        N  0.92181967  0.84389765  0.54821141    -0.04140
N149        N  0.96746318  0.83551179  0.56985747    -0.59790
N150        N  0.91374703  0.89513102  0.54326950    -0.06050
N151        N  0.95367346  0.92231309  0.56099081    -0.58800
N152        N  0.82254071  0.82644399  0.59794770    -0.03790
N153        N  0.81533730  0.80693735  0.63928190    -0.59880
Mn154      Mn  0.85762631  0.78643798  0.53965176     1.18440
C155        C  0.80326386  0.85010082  0.66455456     0.98420
C156        C  0.98719725  0.88486626  0.57665640     0.99080
N157        N  0.70118344  0.80169447  0.42973609    -0.06070
N158        N  0.65690790  0.77453603  0.42668875    -0.62380
N159        N  0.78349303  0.87398429  0.37284049    -0.04880
N160        N  0.78591934  0.89551699  0.33167323    -0.63060
N161        N  0.79662005  0.82358013  0.37145096    -0.05580
N162        N  0.80758071  0.80944904  0.32889814    -0.62650
N163        N  0.69112994  0.85301467  0.43269866    -0.04480
N164        N  0.64049346  0.86188703  0.43127112    -0.63340
Mn165      Mn  0.78402783  0.77249557  0.43095183     1.10660
C166        C  0.61969602  0.81278524  0.42776115     0.99640
C167        C  0.80139223  0.85503575  0.30487234     0.99720
N168        N  0.85224440  0.97050080  0.47166112    -0.05590
N169        N  0.89333633  0.99861463  0.45985935    -0.60960
N170        N  0.72576637  0.95349072  0.49542395    -0.04910
N171        N  0.68819076  0.98932527  0.49621595    -0.57690
N172        N  0.75670212  0.95856031  0.53256850    -0.06220
N173        N  0.74039559  0.99688793  0.55954644    -0.60530
N174        N  0.81927855  0.96549422  0.43577749    -0.05200
N175        N  0.83655825  0.98942047  0.39935839    -0.57710
Mn176      Mn  0.83535103  0.92675947  0.53661355     1.20190
Mn177      Mn  0.75353959  0.91197586  0.43425068     1.10090
Cl178      Cl  0.80710878  0.84905783  0.48567353    -0.85680
C179        C  0.88229683  0.01009092  0.41462882     0.96650
C180        C  0.69732842  0.01511563  0.53694176     0.96450
N181        N  0.56288589  0.47417985  0.13659962    -0.05840
N182        N  0.52365355  0.50397576  0.15001091    -0.57960
N183        N  0.68717579  0.45066921  0.11048602    -0.05520
N184        N  0.72791517  0.48277186  0.11060436    -0.60090
N185        N  0.65632340  0.45926461  0.07387722    -0.05120
N186        N  0.67578968  0.49660617  0.04818673    -0.57930
N187        N  0.59547362  0.46528689  0.17205685    -0.04790
N188        N  0.57968243  0.48837433  0.20981703    -0.60440
C189        C  0.53533694  0.51247543  0.19569580     0.96340
C190        C  0.72066547  0.51020636  0.07101560     0.96120
N191        N  0.70671353  0.29649588  0.16661750    -0.06020
N192        N  0.75019470  0.26800156  0.16856049    -0.58540
N193        N  0.62749676  0.36850125  0.22955171    -0.04140
N194        N  0.62246957  0.38868047  0.27128564    -0.59790
N195        N  0.61311619  0.31840254  0.22802708    -0.06050
N196        N  0.59829515  0.30310102  0.26895855    -0.58800
N197        N  0.71844799  0.34754760  0.16717220    -0.03790
N198        N  0.76933899  0.35492977  0.16967947    -0.59880
Mn199      Mn  0.65840657  0.40853079  0.16996511     1.18440
C200        C  0.78868735  0.30523671  0.17023848     0.98420
C201        C  0.60388532  0.34764426  0.29521178     0.99080
N202        N  0.58880671  0.38655225  0.00484668    -0.06070
N203        N  0.60192116  0.40323526  0.96371847    -0.62380
N204        N  0.48286076  0.35575825  0.05856396    -0.04880
N205        N  0.43469737  0.34969273  0.04132793    -0.63060
N206        N  0.49432636  0.40642813  0.06339948    -0.05580
N207        N  0.45419116  0.43574909  0.04970728    -0.62650
N208        N  0.57837967  0.33525633  0.00305079    -0.04480
N209        N  0.58391515  0.31605241  0.96108067    -0.63340
Mn210      Mn  0.57524681  0.43301835  0.06923667     1.10660
C211        C  0.59918323  0.35855894  0.93716341     0.99640
C212        C  0.41701439  0.39994223  0.03698207     0.99720
N213        N  0.53695848  0.25041225  0.15970970    -0.05590
N214        N  0.50522978  0.23127406  0.19053364    -0.60960
N215        N  0.60324638  0.23329056  0.06380686    -0.04910
N216        N  0.60573374  0.19253741  0.03501491    -0.57690
N217        N  0.63143088  0.22415557  0.10197954    -0.06220
N218        N  0.65388792  0.17723638  0.09974907    -0.60530
N219        N  0.51037976  0.25924887  0.12055227    -0.05200
N220        N  0.46097298  0.24662428  0.12360610    -0.57710
Mn221      Mn  0.62245756  0.27072395  0.16517983     1.20190
Mn222      Mn  0.54383767  0.29517052  0.06090194     1.10090
Cl223      Cl  0.60049482  0.35159506  0.11603154    -0.85680
C224        C  0.45818328  0.22907764  0.16700995     0.96650
C225        C  0.63798226  0.15856758  0.05776096     0.96450
N226        N  0.59159581  0.46639346  0.67689701    -0.05840
N227        N  0.59415130  0.51141376  0.70088473    -0.57960
N228        N  0.57413811  0.35426341  0.72779245    -0.05520
N229        N  0.55950489  0.34333291  0.76985973    -0.60090
N230        N  0.62365528  0.36851619  0.72923386    -0.05120
N231        N  0.64339330  0.36780550  0.77205213    -0.57930
N232        N  0.54274436  0.45068483  0.67151661    -0.04790
N233        N  0.51161305  0.48484621  0.69107405    -0.60440
C234        C  0.54384849  0.52271540  0.70863717     0.96340
C235        C  0.60331223  0.35117483  0.79677881     0.96120
N236        N  0.50845703  0.25536535  0.62171733    -0.06020
N237        N  0.47528678  0.21499852  0.62001031    -0.58540
N238        N  0.47453977  0.37934401  0.59976793    -0.04140
N239        N  0.43425422  0.41107204  0.59088509    -0.59790
N240        N  0.48357533  0.35038666  0.56294267    -0.06050
N241        N  0.45029015  0.36114836  0.52859952    -0.58800
N242        N  0.50268211  0.28330246  0.65976126    -0.03790
N243        N  0.46665338  0.26200673  0.68471545    -0.59880
Mn244      Mn  0.52309805  0.36704386  0.66470134     1.18440
C245        C  0.45043137  0.21914051  0.66010660     0.98420
C246        C  0.41961875  0.39846563  0.54649620     0.99080
N247        N  0.72212695  0.35370172  0.66540823    -0.06070
N248        N  0.76460276  0.35133096  0.69291111    -0.62380
N249        N  0.69296707  0.42462768  0.57131280    -0.04880
N250        N  0.71049111  0.45867933  0.54098502    -0.63060
N251        N  0.68464667  0.44950075  0.61056915    -0.05580
N252        N  0.69604947  0.50030654  0.60799019    -0.62650
N253        N  0.72940150  0.32755571  0.62664360    -0.04480
N254        N  0.77651286  0.30671562  0.62712923    -0.63340
Mn255      Mn  0.65630209  0.40951128  0.67089255     1.10660
C256        C  0.79767250  0.32129291  0.66869321     0.99640
C257        C  0.71199243  0.50546555  0.56472629     0.99720
N258        N  0.57834568  0.32953313  0.50213451    -0.05590
N259        N  0.55783460  0.33103580  0.45955940    -0.60960
N260        N  0.65773565  0.25095830  0.56312019    -0.04910
N261        N  0.68832224  0.20884200  0.56048032    -0.57690
N262        N  0.60857549  0.23574127  0.56305717    -0.06220
N263        N  0.60446392  0.18370279  0.56027319    -0.60530
N264        N  0.62669159  0.34692401  0.50334118    -0.05200
N265        N  0.64020533  0.36036346  0.46156541    -0.57710
Mn266      Mn  0.54463546  0.29191314  0.56212597     1.20190
Mn267      Mn  0.67799417  0.33733346  0.56511954     1.10090
Cl268      Cl  0.60080119  0.35126661  0.61584290    -0.85680
C269        C  0.59660913  0.35098823  0.43493854     0.96650
C270        C  0.65421969  0.16757550  0.55902292     0.96450
N271        N  0.20793637  0.09250885  0.29682876    -0.05840
N272        N  0.21974185  0.05741141  0.32990466    -0.57960
N273        N  0.23489370  0.16220321  0.20076513    -0.05520
N274        N  0.27730481  0.16459353  0.17642058    -0.60090
N275        N  0.24209224  0.18955912  0.23946852    -0.05120
N276        N  0.28883666  0.21154549  0.24190015    -0.57930
N277        N  0.20204656  0.06709352  0.25684821    -0.04790
N278        N  0.20935702  0.01571342  0.26156750    -0.60440
C279        C  0.22056130  0.00976419  0.30680659     0.96340
C280        C  0.31010887  0.19615552  0.20231791     0.96120
N281        N  0.08222223  0.14848606  0.13080790    -0.06020
N282        N  0.06603108  0.16021133  0.08805549    -0.58540
N283        N  0.11114939  0.04100621  0.18760364    -0.04140
N284        N  0.11652566  0.99307302  0.16928852    -0.59790
N285        N  0.06156548  0.05231059  0.19104174    -0.06050
N286        N  0.03245926  0.01239853  0.17539971    -0.58800
N287        N  0.13292709  0.13909833  0.13228246    -0.03790
N288        N  0.15184434  0.14372578  0.09088576    -0.59880
Mn289      Mn  0.17125691  0.10302850  0.19361179     1.18440
C290        C  0.11001209  0.15755309  0.06385055     0.98420
C291        C  0.06704140  0.97540230  0.16279023     0.99080
N292        N  0.16760263  0.26875201  0.29088886    -0.06070
N293        N  0.19688304  0.31204762  0.28765827    -0.62380
N294        N  0.09341524  0.19292684  0.35456476    -0.04880
N295        N  0.07227745  0.19137513  0.39524902    -0.63060
N296        N  0.14176944  0.17601644  0.35757906    -0.05580
N297        N  0.15491981  0.16326973  0.40078475    -0.62650
N298        N  0.11777279  0.28195814  0.28647516    -0.04480
N299        N  0.11235644  0.33372441  0.28072384    -0.63340
Mn300      Mn  0.19131885  0.18180831  0.29777309     1.10660
C301        C  0.16178468  0.35211938  0.28113746     0.99640
C302        C  0.11088119  0.17267997  0.42359533     0.99720
N303        N  0.99412847  0.12140730  0.25943973    -0.05590
N304        N  0.96789559  0.07993854  0.27444239    -0.60960
N305        N  0.01174933  0.24812401  0.22740457    -0.04910
N306        N  0.97349615  0.28350941  0.22682105    -0.57690
N307        N  0.00490591  0.21523617  0.19203836    -0.06220
N308        N  0.96300357  0.22837234  0.16671440    -0.60530
N309        N  0.00108677  0.15646811  0.29324750    -0.05200
N310        N  0.98021948  0.14016315  0.33126757    -0.57710
Mn311      Mn  0.03487460  0.13405141  0.19308532     1.20190
Mn312      Mn  0.05587178  0.22158846  0.29023129     1.10090
Cl313      Cl  0.11373625  0.16105162  0.24311967    -0.85680
C314        C  0.95942477  0.09289325  0.31921482     0.96650
C315        C  0.94409752  0.27131280  0.18820248     0.96450
N316        N  0.20535728  0.08759910  0.79239954    -0.05840
N317        N  0.21764858  0.05266748  0.82541481    -0.57960
N318        N  0.22649924  0.15518110  0.69384514    -0.05520
N319        N  0.26586612  0.15532180  0.66603091    -0.60090
N320        N  0.23826127  0.18253390  0.73181541    -0.05120
N321        N  0.28589695  0.20216534  0.73031136    -0.57930
N322        N  0.19623510  0.06193588  0.75295359    -0.04790
N323        N  0.20191789  0.01039776  0.75792896    -0.60440
C324        C  0.21539095  0.00478037  0.80279714     0.96340
C325        C  0.30215395  0.18533145  0.68894048     0.96120
N326        N  0.07348739  0.14690524  0.63018670    -0.06020
N327        N  0.05713990  0.16123640  0.58811191    -0.58540
N328        N  0.10190071  0.03820537  0.68887540    -0.04140
N329        N  0.10757864  0.98816570  0.67615047    -0.59790
N330        N  0.05241513  0.05049088  0.69080106    -0.06050
N331        N  0.02331355  0.00885104  0.67902682    -0.58800
N332        N  0.12352549  0.13488718  0.63056551    -0.03790
N333        N  0.14205427  0.14049875  0.58916323    -0.59880
Mn334      Mn  0.16272181  0.09812146  0.69094270     1.18440
C335        C  0.10055874  0.15740703  0.56324276     0.98420
C336        C  0.05833035  0.97004198  0.67106840     0.99080
N337        N  0.16917031  0.26404585  0.78849857    -0.06150
N338        N  0.19859421  0.30706935  0.78411847    -0.62380
N339        N  0.09621656  0.18798834  0.85466818    -0.04880
N340        N  0.07703328  0.18641350  0.89617127    -0.63060
N341        N  0.14473903  0.17146054  0.85590938    -0.05580
N342        N  0.15983544  0.15865243  0.89870378    -0.62650
N343        N  0.11948653  0.27787306  0.78704825    -0.04480
N344        N  0.11420844  0.32969835  0.78196649    -0.63340
Mn345      Mn  0.19119735  0.17672954  0.79360162     1.10660
C346        C  0.16356318  0.34756028  0.77986749     0.99640
C347        C  0.11689471  0.16782382  0.92318077     0.99720
N348        N  0.98891320  0.12283316  0.75999965    -0.05590
N349        N  0.95780340  0.08438513  0.77332371    -0.60960
N350        N  0.01321608  0.24858507  0.73081652    -0.04910
N351        N  0.97958363  0.28832959  0.73138731    -0.57690
N352        N  0.00245982  0.21719979  0.69501853    -0.06220
N353        N  0.96185627  0.23549606  0.67060778    -0.60530
N354        N  0.99946307  0.15577995  0.79482189    -0.05200
N355        N  0.97623237  0.14086020  0.83211333    -0.57710
Mn356      Mn  0.02803692  0.13399115  0.69336911     1.20190
Mn357      Mn  0.05691603  0.21882931  0.79198003     1.10090
Cl358      Cl  0.10989358  0.15766915  0.74214439    -0.85680
C359        C  0.95032442  0.09679339  0.81825417     0.96650
C360        C  0.94855872  0.28021121  0.69314681     0.96450
C361        C  0.10628979  0.16757707  0.47274179    -0.12990
C362        C  0.10195607  0.16405294  0.51398013    -0.14550
C363        C  0.11154243  0.16157956  0.01424539    -0.12990
C364        C  0.11473760  0.16358400  0.97272754    -0.14550
C365        C  0.85185560  0.31352346  0.68118008    -0.12990
C366        C  0.89737905  0.30272054  0.68724544    -0.14550
C367        C  0.35503176  0.18972328  0.67540487    -0.12990
C368        C  0.39990650  0.19716867  0.66679674    -0.14550
C369        C  0.60380476  0.35710733  0.88791948    -0.12990
C370        C  0.60423201  0.35334481  0.84638698    -0.14550
C371        C  0.59711741  0.34983206  0.34401388    -0.12990
C372        C  0.59523110  0.35180344  0.38544795    -0.14550
C373        C  0.84388773  0.29448358  0.17537390    -0.12990
C374        C  0.89035176  0.28710344  0.18083671    -0.14550
C375        C  0.40911619  0.21391809  0.18515851    -0.12990
C376        C  0.36420340  0.20488923  0.19330683    -0.14550
C377        C  0.02502274  0.89812502  0.61242721    -0.12990
C378        C  0.04499862  0.92467580  0.64299017    -0.14550
C379        C  0.93628675  0.05943621  0.35273036    -0.12990
C380        C  0.91557387  0.03679336  0.38363209    -0.14550
C381        C  0.72825262  0.55565753  0.54742947    -0.12990
C382        C  0.74019575  0.60065041  0.53876977    -0.14550
C383        C  0.66782587  0.11300793  0.55303101    -0.12990
C384        C  0.67782571  0.06702193  0.54630722    -0.14550
C385        C  0.79699871  0.84637657  0.75515056    -0.12990
C386        C  0.79876853  0.84872681  0.71371891    -0.14550
C387        C  0.80258270  0.85845358  0.25559267    -0.12990
C388        C  0.80193003  0.86141035  0.21410930    -0.14550
C389        C  0.02644610  0.91322973  0.09920306    -0.12990
C390        C  0.05170654  0.93515397  0.12974199    -0.14550
C391        C  0.89916747  0.04264291  0.87889339    -0.12990
C392        C  0.92225987  0.06543436  0.84973694    -0.14550
C393        C  0.74439009  0.56037112  0.06357262    -0.12990
C394        C  0.75445860  0.60582793  0.05558749    -0.14550
C395        C  0.64468970  0.10460474  0.04437886    -0.12990
C396        C  0.65505132  0.05894975  0.03734708    -0.14550
C397        C  0.37480442  0.41428704  0.00582442    -0.12990
C398        C  0.35088153  0.43800952  0.97599720    -0.14550
C399        C  0.50454373  0.57934052  0.77473468    -0.12990
C400        C  0.52767247  0.55691173  0.74502892    -0.14550
C401        C  0.55784468  0.79705803  0.92710118    -0.12990
C402        C  0.51109367  0.79137222  0.92298135    -0.14550
C403        C  0.99280286  0.71473642  0.91585171    -0.12990
C404        C  0.03783935  0.70558503  0.90809089    -0.14550
C405        C  0.17601853  0.40390345  0.77713832    -0.12990
C406        C  0.18143974  0.45186362  0.78103371    -0.14550
C407        C  0.22303579  0.95229057  0.82200935    -0.12990
C408        C  0.22889936  0.90456948  0.82568900    -0.14550
C409        C  0.29852066  0.66564750  0.63298329    -0.12990
C410        C  0.30131445  0.66661059  0.59156583    -0.14550
C411        C  0.29116126  0.67016505  0.13233000    -0.12990
C412        C  0.29061872  0.66967272  0.09076266    -0.14550
C413        C  0.35900884  0.44983853  0.48780864    -0.12990
C414        C  0.38170942  0.42590778  0.51821571    -0.14550
C415        C  0.48088041  0.56205780  0.25775388    -0.12990
C416        C  0.50323833  0.53934800  0.22767208    -0.14550
C417        C  0.51786561  0.79570377  0.41950819    -0.12990
C418        C  0.56432726  0.80334891  0.42369254    -0.14550
C419        C  0.04401507  0.70643263  0.41068484    -0.12990
C420        C  0.99831788  0.71405385  0.41671876    -0.14550
C421        C  0.17429229  0.40857634  0.27892377    -0.12990
C422        C  0.18102236  0.45639390  0.28301916    -0.14550
C423        C  0.23544240  0.90920020  0.32888948    -0.12990
C424        C  0.22894268  0.95700589  0.32568439    -0.14550
loop_ 
_geom_bond_atom_site_label_1 
_geom_bond_atom_site_label_2 
_geom_bond_distance 
_geom_bond_site_symmetry_2 
_ccdc_geom_bond_type 
N1            N2   1.329       .  A
N1            N7   1.322       .  A
N1          Mn30   2.277       .  S
N2            C9   1.362       .  A
N3            N5   1.311       .  A
N3            N4   1.320       .  A
N3          Mn19   2.190       .  S
N4           C10   1.349       .  A
N5            N6   1.320       .  A
N5          Mn30   2.177       .  S
N6           C10   1.349       .  A
N7            N8   1.321       .  A
N7          Mn19   2.198       .  S
N8            C9   1.349       .  A
C9          C423   1.457       .  S
C10         C411   1.432       .  S
N11          N17   1.318       .  A
N11          N12   1.326       .  A
N11         Mn41   2.246       .  S
N12          C20   1.360       .  A
N13          N14   1.324       .  A
N13          N15   1.316       .  A
N13         Mn19   2.203       .  S
N14          C21   1.352       .  A
N15          N16   1.319       .  A
N15         Mn41   2.181       .  S
N16          C21   1.344       .  A
N17          N18   1.314       .  A
N17         Mn19   2.163       .  S
N18          C20   1.340       .  A
Mn19        Cl43   2.553       .  S
C20         C415   1.432       .  S
C21         C417   1.440       .  S
N22          N23   1.334       .  A
N22          N28   1.320       .  A
N22         Mn30   2.287       .  S
N23          C31   1.368       .  A
N24          N26   1.314       .  A
N24          N25   1.326       .  A
N24         Mn42   2.215       .  S
N25          C32   1.356       .  A
N26          N27   1.318       .  A
N26         Mn30   2.173       .  S
N27          C32   1.343       .  A
N28          N29   1.315       .  A
N28         Mn42   2.170       .  S
N29          C31   1.340       .  A
Mn30        Cl43   2.534       .  S
C31         C422   1.455       .  S
C32         C419   1.441       .  S
N33          N34   1.323       .  A
N33          N39   1.323       .  A
N33         Mn41   2.240       .  S
N34          C44   1.354       .  A
N35          N36   1.322       .  A
N35          N37   1.314       .  A
N35         Mn42   2.192       .  S
N36          C45   1.348       .  A
N37          N38   1.316       .  A
N37         Mn41   2.167       .  S
N38          C45   1.344       .  A
N39          N40   1.318       .  A
N39         Mn42   2.190       .  S
N40          C44   1.347       .  A
Mn41        Cl43   2.524       .  S
Mn42        Cl43   2.550       .  S
C44         C410   1.435       .  S
C45         C413   1.427       .  S
N46          N47   1.320   1_556  A
N46          N52   1.321       .  A
N46         Mn75   2.219       .  S
N47          C54   1.350       .  A
N48          N50   1.314       .  A
N48          N49   1.321       .  A
N48         Mn64   2.188       .  S
N49          C55   1.348       .  A
N50          N51   1.317       .  A
N50         Mn75   2.182       .  S
N51          C55   1.348       .  A
N52          N53   1.320   1_556  A
N52         Mn64   2.199       .  S
N53          C54   1.350       .  A
C54         C412   1.432       .  S
C55         C398   1.428       .  S
N56          N62   1.320       .  A
N56          N57   1.333       .  A
N56         Mn86   2.282       .  S
N57          C65   1.367       .  A
N58          N59   1.325       .  A
N58          N60   1.315       .  A
N58         Mn64   2.213       .  S
N59          C66   1.355       .  A
N60          N61   1.320       .  A
N60         Mn86   2.188       .  S
N61          C66   1.346       .  A
N62          N63   1.315       .  A
N62         Mn64   2.171       .  S
N63          C65   1.340       .  A
Mn64        Cl88   2.552       .  S
C65         C406   1.453       .  S
C66         C404   1.443       .  S
N67          N68   1.326       .  A
N67          N73   1.317       .  A
N67         Mn75   2.241       .  S
N68          C76   1.359       .  A
N69          N71   1.317       .  A
N69          N70   1.325       .  A
N69         Mn87   2.206       .  S
N70          C77   1.353       .  A
N71          N72   1.318       .  A
N71         Mn75   2.178       .  S
N72          C77   1.343       .  A
N73          N74   1.313       .  A
N73         Mn87   2.162       .  S
N74          C76   1.342       .  A
Mn75        Cl88   2.527       .  S
C76         C399   1.431       .  S
C77         C402   1.440       .  S
N78          N79   1.328       .  A
N78          N84   1.321       .  A
N78         Mn86   2.266       .  S
N79          C89   1.361       .  A
N80          N81   1.319       .  A
N80          N82   1.313       .  A
N80         Mn87   2.184       .  S
N81          C90   1.346       .  A
N82          N83   1.323       .  A
N82         Mn86   2.195       .  S
N83          C90   1.353       .  A
N84          N85   1.319       .  A
N84         Mn87   2.195       .  S
N85          C89   1.347       .  A
Mn86        Cl88   2.543       .  S
Mn87        Cl88   2.546       .  S
C89         C408   1.452       .  S
C90         C409   1.435       .  S
N91          N92   1.328       .  A
N91          N97   1.319       .  A
N91        Mn120   2.252       .  S
N92          C99   1.361       .  A
N93          N95   1.316   1_554  A
N93          N94   1.319       .  A
N93        Mn109   2.180       .  S
N94         C100   1.346       .  A
N95          N96   1.318       .  A
N95        Mn120   2.192       .  S
N96         C100   1.348   1_556  A
N97          N98   1.314       .  A
N97        Mn109   2.169   1_556  S
N98          C99   1.341       .  A
C99         C403   1.440       .  S
C100        C394   1.425       .  S
N101        N107   1.318       .  A
N101        N102   1.323       .  A
N101       Mn131   2.223       .  S
N102        C110   1.354       .  A
N103        N104   1.321       .  A
N103        N105   1.313       .  A
N103       Mn109   2.186       .  S
N104        C111   1.348       .  A
N105        N106   1.318       .  A
N105       Mn131   2.187       .  S
N106        C111   1.350       .  A
N107        N108   1.317       .  A
N107       Mn109   2.185       .  S
N108        C110   1.347       .  A
Mn109      Cl133   2.531   1_554  S
C110        C388   1.433       .  S
C111        C389   1.431   1_655  S
N112        N113   1.327       .  A
N112        N118   1.318       .  A
N112       Mn120   2.255       .  S
N113        C121   1.360       .  A
N114        N116   1.313       .  A
N114        N115   1.318       .  A
N114       Mn132   2.181       .  S
N115        C122   1.347       .  A
N116        N117   1.322       .  A
N116       Mn120   2.200       .  S
N117        C122   1.353       .  A
N118        N119   1.317       .  A
N118       Mn132   2.172       .  S
N119        C121   1.344       .  A
Mn120      Cl133   2.548       .  S
C121        C401   1.441       .  S
C122        C385   1.434       .  S
N123        N124   1.325   1_565  A
N123        N129   1.317       .  A
N123       Mn131   2.229   1_556  S
N124        C134   1.357       .  A
N125        N126   1.319       .  A
N125        N127   1.314   1_556  A
N125       Mn132   2.177       .  S
N126        C135   1.348   1_566  A
N127        N128   1.316       .  A
N127       Mn131   2.184       .  S
N128        C135   1.346   1_565  A
N129        N130   1.314       .  A
N129       Mn132   2.161       .  S
N130        C134   1.341   1_565  A
Mn131      Cl133   2.541   1_554  S
Mn132      Cl133   2.535       .  S
C134        C391   1.429       .  S
C135        C396   1.420       .  S
N136        N137   1.329       .  A
N136        N142   1.319       .  A
N136       Mn165   2.259       .  S
N137        C144   1.363       .  A
N138        N140   1.316       .  A
N138        N139   1.322       .  A
N138       Mn154   2.204       .  S
N139        C145   1.353       .  A
N140        N141   1.318       .  A
N140       Mn165   2.182       .  S
N141        C145   1.345       .  A
N142        N143   1.313       .  A
N142       Mn154   2.165       .  S
N143        C144   1.339       .  A
C144        C420   1.438       .  S
C145        C382   1.433       .  S
N146        N152   1.319       .  A
N146        N147   1.322       .  A
N146       Mn176   2.233       .  S
N147        C155   1.354       .  A
N148        N149   1.322       .  A
N148        N150   1.314       .  A
N148       Mn154   2.195       .  S
N149        C156   1.350       .  A
N150        N151   1.314       .  A
N150       Mn176   2.166       .  S
N151        C156   1.345       .  A
N152        N153   1.319       .  A
N152       Mn154   2.186       .  S
N153        C155   1.348       .  A
Mn154      Cl178   2.545       .  S
C155        C386   1.435       .  S
C156        C377   1.425   1_655  S
N157        N158   1.325       .  A
N157        N163   1.320       .  A
N157       Mn165   2.250       .  S
N158        C166   1.358       .  A
N159        N161   1.313       .  A
N159        N160   1.318       .  A
N159       Mn177   2.182       .  S
N160        C167   1.346       .  A
N161        N162   1.322       .  A
N161       Mn165   2.194       .  S
N162        C167   1.353       .  A
N163        N164   1.318       .  A
N163       Mn177   2.181       .  S
N164        C166   1.346       .  A
Mn165      Cl178   2.536       .  S
C166        C418   1.440       .  S
C167        C387   1.432       .  S
N168        N169   1.328       .  A
N168        N174   1.316       .  A
N168       Mn176   2.247       .  S
N169        C179   1.362   1_565  A
N170        N171   1.322       .  A
N170        N172   1.314       .  A
N170       Mn177   2.195       .  S
N171        C180   1.352   1_565  A
N172        N173   1.316       .  A
N172       Mn176   2.171       .  S
N173        C180   1.343   1_565  A
N174        N175   1.313       .  A
N174       Mn177   2.156       .  S
N175        C179   1.339   1_565  A
Mn176      Cl178   2.525       .  S
Mn177      Cl178   2.546       .  S
C179        C380   1.437       .  S
C180        C384   1.427       .  S
N181        N182   1.326       .  A
N181        N187   1.317       .  A
N181       Mn210   2.236       .  S
N182        C189   1.359       .  A
N183        N185   1.315       .  A
N183        N184   1.321       .  A
N183       Mn199   2.187       .  S
N184        C190   1.350       .  A
N185        N186   1.316       .  A
N185       Mn210   2.181       .  S
N186        C190   1.345       .  A
N187        N188   1.314       .  A
N187       Mn199   2.160       .  S
N188        C189   1.340       .  A
C189        C416   1.432       .  S
C190        C393   1.423       .  S
N191        N197   1.319       .  A
N191        N192   1.327       .  A
N191       Mn221   2.256       .  S
N192        C200   1.360       .  A
N193        N194   1.318       .  A
N193        N195   1.313       .  A
N193       Mn199   2.185       .  S
N194        C201   1.347       .  A
N195        N196   1.322       .  A
N195       Mn221   2.193       .  S
N196        C201   1.352       .  A
N197        N198   1.318       .  A
N197       Mn199   2.179       .  S
N198        C200   1.346       .  A
Mn199      Cl223   2.540       .  S
C200        C373   1.444       .  S
C201        C371   1.432       .  S
N202        N203   1.324   1_554  A
N202        N208   1.318       .  A
N202       Mn210   2.233       .  S
N203        C211   1.356       .  A
N204        N206   1.313       .  A
N204        N205   1.321       .  A
N204       Mn222   2.185       .  S
N205        C212   1.349       .  A
N206        N207   1.317       .  A
N206       Mn210   2.181       .  S
N207        C212   1.349       .  A
N208        N209   1.318   1_554  A
N208       Mn222   2.184       .  S
N209        C211   1.347       .  A
Mn210      Cl223   2.536       .  S
C211        C369   1.437       .  S
C212        C397   1.428       .  S
N213        N214   1.328       .  A
N213        N219   1.318       .  A
N213       Mn221   2.251       .  S
N214        C224   1.361       .  A
N215        N216   1.319       .  A
N215        N217   1.316       .  A
N215       Mn222   2.180       .  S
N216        C225   1.347       .  A
N217        N218   1.316       .  A
N217       Mn221   2.185       .  S
N218        C225   1.346       .  A
N219        N220   1.314       .  A
N219       Mn222   2.167       .  S
N220        C224   1.341       .  A
Mn221      Cl223   2.543       .  S
Mn222      Cl223   2.536       .  S
C224        C375   1.439       .  S
C225        C395   1.421       .  S
N226        N227   1.323       .  A
N226        N232   1.317       .  A
N226       Mn255   2.205       .  S
N227        C234   1.351       .  A
N228        N230   1.319       .  A
N228        N229   1.322       .  A
N228       Mn244   2.227       .  S
N229        C235   1.353       .  A
N230        N231   1.319       .  A
N230       Mn255   2.186       .  S
N231        C235   1.348       .  A
N232        N233   1.316       .  A
N232       Mn244   2.168       .  S
N233        C234   1.343       .  A
C234        C400   1.431       .  S
C235        C370   1.437       .  S
N236        N242   1.316       .  A
N236        N237   1.324       .  A
N236       Mn266   2.204       .  S
N237        C245   1.353       .  A
N238        N239   1.325       .  A
N238        N240   1.315       .  A
N238       Mn244   2.234       .  S
N239        C246   1.358       .  A
N240        N241   1.313       .  A
N240       Mn266   2.152       .  S
N241        C246   1.341       .  A
N242        N243   1.315       .  A
N242       Mn244   2.172       .  S
N243        C245   1.343       .  A
Mn244      Cl268   2.526       .  S
C245        C368   1.431       .  S
C246        C414   1.427       .  S
N247        N248   1.323       .  A
N247        N253   1.317       .  A
N247       Mn255   2.208       .  S
N248        C256   1.352       .  A
N249        N251   1.319       .  A
N249        N250   1.325       .  A
N249       Mn267   2.233       .  S
N250        C257   1.357       .  A
N251        N252   1.314       .  A
N251       Mn255   2.177       .  S
N252        C257   1.343       .  A
N253        N254   1.318       .  A
N253       Mn267   2.186       .  S
N254        C256   1.346       .  A
Mn255      Cl268   2.544       .  S
C256        C365   1.436       .  S
C257        C381   1.431       .  S
N258        N259   1.320       .  A
N258        N264   1.314       .  A
N258       Mn266   2.197       .  S
N259        C269   1.349       .  A
N260        N261   1.323       .  A
N260        N262   1.318       .  A
N260       Mn267   2.233       .  S
N261        C270   1.356       .  A
N262        N263   1.315       .  A
N262       Mn266   2.166       .  S
N263        C270   1.343       .  A
N264        N265   1.320       .  A
N264       Mn267   2.190       .  S
N265        C269   1.350       .  A
Mn266      Cl268   2.546       .  S
Mn267      Cl268   2.541       .  S
C269        C372   1.433       .  S
C270        C383   1.428       .  S
N271        N272   1.334       .  A
N271        N277   1.320       .  A
N271       Mn300   2.287       .  S
N272        C279   1.368       .  A
N273        N275   1.316       .  A
N273        N274   1.325       .  A
N273       Mn289   2.211       .  S
N274        C280   1.354       .  A
N275        N276   1.320       .  A
N275       Mn300   2.188       .  S
N276        C280   1.345       .  A
N277        N278   1.314       .  A
N277       Mn289   2.168       .  S
N278        C279   1.339       .  A
C279        C424   1.453   1_545  S
C280        C376   1.441       .  S
N281        N287   1.322       .  A
N281        N282   1.325       .  A
N281       Mn311   2.251       .  S
N282        C290   1.357       .  A
N283        N284   1.323   1_545  A
N283        N285   1.312       .  A
N283       Mn289   2.194       .  S
N284        C291   1.350       .  A
N285        N286   1.316       .  A
N285       Mn311   2.169       .  S
N286        C291   1.346   1_545  A
N287        N288   1.319       .  A
N287       Mn289   2.196       .  S
N288        C290   1.349       .  A
Mn289      Cl313   2.554       .  S
C290        C363   1.444       .  S
C291        C390   1.430       .  S
N292        N293   1.329       .  A
N292        N298   1.323       .  A
N292       Mn300   2.279       .  S
N293        C301   1.362       .  A
N294        N296   1.312       .  A
N294        N295   1.320       .  A
N294       Mn312   2.188       .  S
N295        C302   1.347       .  A
N296        N297   1.324       .  A
N296       Mn300   2.200       .  S
N297        C302   1.354       .  A
N298        N299   1.321       .  A
N298       Mn312   2.204       .  S
N299        C301   1.350       .  A
Mn300      Cl313   2.540       .  S
C301        C421   1.458       .  S
C302        C361   1.440       .  S
N303        N304   1.328       .  A
N303        N309   1.318   1_655  A
N303       Mn311   2.253   1_655  S
N304        C314   1.361       .  A
N305        N306   1.326   1_455  A
N305        N307   1.316       .  A
N305       Mn312   2.210       .  S
N306        C315   1.354       .  A
N307        N308   1.319   1_455  A
N307       Mn311   2.183       .  S
N308        C315   1.344       .  A
N309        N310   1.315   1_455  A
N309       Mn312   2.163       .  S
N310        C314   1.340       .  A
Mn311      Cl313   2.526       .  S
Mn312      Cl313   2.556       .  S
C314        C379   1.438       .  S
C315        C374   1.444       .  S
N316        N317   1.333       .  A
N316        N322   1.319       .  A
N316       Mn345   2.272       .  S
N317        C324   1.366       .  A
N318        N320   1.316       .  A
N318        N319   1.320       .  A
N318       Mn334   2.175       .  S
N319        C325   1.346       .  A
N320        N321   1.321       .  A
N320       Mn345   2.209       .  S
N321        C325   1.351       .  A
N322        N323   1.313       .  A
N322       Mn334   2.166       .  S
N323        C324   1.339       .  A
C324        C407   1.448   1_545  S
C325        C367   1.434       .  S
N326        N332   1.320       .  A
N326        N327   1.325       .  A
N326       Mn356   2.239       .  S
N327        C335   1.357       .  A
N328        N329   1.318   1_545  A
N328        N330   1.311       .  A
N328       Mn334   2.168       .  S
N329        C336   1.345       .  A
N330        N331   1.319       .  A
N330       Mn356   2.194       .  S
N331        C336   1.353   1_545  A
N332        N333   1.318       .  A
N332       Mn334   2.191       .  S
N333        C335   1.347       .  A
Mn334      Cl358   2.535       .  S
C335        C362   1.440       .  S
C336        C378   1.428       .  S
N337        N338   1.329       .  A
N337        N343   1.321       .  A
N337       Mn345   2.273       .  S
N338        C346   1.362       .  A
N339        N341   1.313       .  A
N339        N340   1.320       .  A
N339       Mn357   2.187       .  S
N340        C347   1.347       .  A
N341        N342   1.325       .  A
N341       Mn345   2.212       .  S
N342        C347   1.356       .  A
N343        N344   1.320       .  A
N343       Mn357   2.197       .  S
N344        C346   1.348       .  A
Mn345      Cl358   2.553       .  S
C346        C405   1.456       .  S
C347        C364   1.444       .  S
N348        N349   1.325       .  A
N348        N354   1.318       .  A
N348       Mn356   2.235   1_655  S
N349        C359   1.357       .  A
N350        N351   1.322   1_455  A
N350        N352   1.317       .  A
N350       Mn357   2.193       .  S
N351        C360   1.349       .  A
N352        N353   1.319   1_455  A
N352       Mn356   2.195       .  S
N353        C360   1.347       .  A
N354        N355   1.314       .  A
N354       Mn357   2.169   1_655  S
N355        C359   1.341       .  A
Mn356      Cl358   2.547       .  S
Mn357      Cl358   2.537       .  S
C359        C392   1.429       .  S
C360        C366   1.435       .  S
C361        C362   1.209       .  T
C363        C364   1.210   1_554  T
C365        C366   1.206       .  T
C367        C368   1.204       .  T
C369        C370   1.206       .  T
C371        C372   1.204       .  T
C373        C374   1.211       .  T
C375        C376   1.209       .  T
C377        C378   1.200       .  T
C379        C380   1.208       .  T
C381        C382   1.204       .  T
C383        C384   1.201       .  T
C385        C386   1.205       .  T
C387        C388   1.204       .  T
C389        C390   1.203       .  T
C391        C392   1.202       .  T
C393        C394   1.199       .  T
C395        C396   1.197       .  T
C397        C398   1.201   1_554  T
C399        C400   1.203       .  T
C401        C402   1.209       .  T
C403        C404   1.209   1_655  T
C405        C406   1.218       .  T
C407        C408   1.215       .  T
C409        C410   1.205       .  T
C411        C412   1.203       .  T
C413        C414   1.201       .  T
C415        C416   1.205       .  T
C417        C418   1.209       .  T
C419        C420   1.209   1_455  T
C421        C422   1.219       .  T
C423        C424   1.218       .  T
