geometry optimzed in LAMMPS
_audit_creation_date              2020-11-30 
_audit_creation_method            'lammps2cif' 
_symmetry_space_group_name_H-M    'P1' 
_symmetry_Int_Tables_number       1 
_symmetry_cell_setting            triclinic 
loop_ 
_symmetry_equiv_pos_as_xyz 
  x,y,z 
_cell_length_a                    28.30029241 
_cell_length_b                    28.35780863887013 
_cell_length_c                    40.65629560641947 
_cell_angle_alpha                 91.01797856965803 
_cell_angle_beta                  89.30032652080683 
_cell_angle_gamma                 122.38032043260631 
loop_ 
_atom_site_label 
_atom_site_type_symbol 
_atom_site_fract_x 
_atom_site_fract_y 
_atom_site_fract_z 
_atom_site_charge 
O1          O  0.07423499  0.27705906  0.33009135    -0.86800
C2          C  0.19654447  0.33896698  0.25882274     0.89200
Mg3        Mg  0.06628010  0.32555569  0.36925900     1.58100
O4          O  0.19230722  0.24764368  0.31790776    -0.86500
O5          O  0.06305010  0.19713269  0.31568557    -0.73900
C6          C  0.31954060  0.45379218  0.43595420     0.94300
O7          O  0.14313499  0.40094363  0.30299145    -0.73700
O8          O  0.27731936  0.45896691  0.43741960    -0.81200
Mg9        Mg  0.08592369  0.31122195  0.28207174     1.58000
C10         C  0.34685242  0.31479959  0.36142617     0.94200
O11         O  0.02310308  0.22578883  0.25960793    -0.79400
H12         H  0.15286639  0.17603839  0.34273737    -0.04800
C13         C  0.29170484  0.41817372  0.34056104     0.89100
O14         O  0.09878734  0.29094401  0.40716066    -0.74000
O15         O  0.15556266  0.30271251  0.27418091    -0.86700
O16         O  0.31035090  0.28295030  0.34066284    -0.79500
C17         C  0.25171575  0.23572378  0.24269979     0.94300
C18         C  0.02708283  0.19758949  0.23642402     0.94200
Mg19       Mg  0.25791899  0.33526549  0.39268227     1.58000
O20         O  0.32137713  0.42099624  0.41508262    -0.79500
O21         O  0.19893492  0.24489381  0.37180447    -0.73700
O22         O  0.20189522  0.22546491  0.23973684    -0.79500
O23         O  0.01036286  0.31439501  0.28828457    -0.81200
O24         O  0.14281446  0.42064998  0.43455428    -0.79600
C25         C  0.18034706  0.22098616  0.34382496     0.88600
O26         O  0.18888272  0.34377169  0.40112344    -0.86700
O27         O  0.26680404  0.36713443  0.34414879    -0.86800
O28         O  0.27790444  0.44753652  0.35706542    -0.73900
Mg29       Mg  0.13347885  0.21799881  0.27767549     1.58000
O30         O  0.28267001  0.26374744  0.26688927    -0.81200
H31         H  0.01366093  0.20486335  0.34930846    -0.05000
O32         O  0.14796645  0.39636925  0.35678563    -0.86500
H33         H  0.18597026  0.46893597  0.33301883    -0.04800
H34         H  0.15384378  0.28498360  0.43554510    -0.05000
C35         C  0.15970263  0.42392515  0.33128766     0.88600
C36         C  0.04886370  0.22579156  0.33263885     0.89200
C37         C  0.14786498  0.30625309  0.41576602     0.89200
H38         H  0.32605806  0.43827519  0.32326972    -0.04900
O39         O  0.24555442  0.35272102  0.26669978    -0.74000
Mg40       Mg  0.20928326  0.42786589  0.39599062     1.58000
H41         H  0.19065340  0.35996587  0.23884757    -0.05000
C42         C  0.99297457  0.33183966  0.31110642     0.94200
O43         O  0.05981803  0.37740656  0.40932670    -0.81200
C44         C  0.09215969  0.40810149  0.43240855     0.94300
O45         O  0.06889786  0.19181164  0.23481262    -0.81200
Mg46       Mg  0.27464697  0.31655914  0.30596044     1.58200
O47         O  0.02001432  0.35323874  0.33748981    -0.79500
O48         O  0.33487616  0.33500064  0.38539401    -0.81200
C49         C  0.34391440  0.18932190  0.20018897     0.03800
C50         C  0.35062754  0.14328712  0.20074803     0.03800
C51         C  0.38690404  0.14049812  0.17768007    -0.16700
C52         C  0.41729816  0.18257977  0.15418184     0.03800
C53         C  0.41258127  0.22989341  0.15466561     0.03800
C54         C  0.37628294  0.23243100  0.17790591    -0.16700
H55         H  0.37448137  0.26958213  0.17969177     0.05800
H56         H  0.39023797  0.10413714  0.17739424     0.05800
C57         C  0.89673912  0.16659449  0.18760358     0.03800
C58         C  0.84037745  0.12112640  0.18674854     0.03800
C59         C  0.80454139  0.11888363  0.16229487    -0.16700
C60         C  0.82242986  0.16113470  0.13883811     0.03800
C61         C  0.87729694  0.20935598  0.14142376     0.03800
C62         C  0.91396697  0.21093538  0.16541994    -0.16700
H63         H  0.95618187  0.24730429  0.16705061     0.05800
H64         H  0.76228276  0.08249012  0.16097826     0.05800
O65         O  0.27079965  0.89380921  0.34566630    -0.86800
C66         C  0.14133465  0.79905135  0.40865234     0.89200
Mg67       Mg  0.27553599  0.95419350  0.31157711     1.58100
O68         O  0.15823825  0.72715566  0.34279580    -0.86500
O69         O  0.28502563  0.82535203  0.34998955    -0.73900
C70         C  0.02763627  0.80558626  0.23697092     0.94300
O71         O  0.18564492  0.92279743  0.37745488    -0.73700
O72         O  0.06403331  0.85761625  0.24151639    -0.81200
Mg73       Mg  0.24776450  0.90001785  0.39538243     1.58000
C74         C  0.01891028  0.62481901  0.28493932     0.94200
O75         O  0.31372783  0.88648134  0.41728249    -0.79400
H76         H  0.20831135  0.71186056  0.31589859    -0.04800
C77         C  0.04949732  0.78100624  0.32797935     0.89100
O78         O  0.25185021  0.89339552  0.26828424    -0.74000
O79         O  0.18545318  0.81371060  0.39404417    -0.86700
O80         O  0.03526663  0.62867728  0.31447306    -0.79500
C81         C  0.09928106  0.64551573  0.41616376     0.94300
C82         C  0.31584119  0.84833502  0.43180283     0.94200
Mg83       Mg  0.10053542  0.75548557  0.27071757     1.58000
O84         O  0.03425206  0.76844075  0.24904348    -0.79500
O85         O  0.16389494  0.73430262  0.28878327    -0.73700
O86         O  0.14843987  0.68949412  0.41828086    -0.79500
O87         O  0.31349485  0.98945004  0.39911496    -0.81200
O88         O  0.19769178  0.96950347  0.24907629    -0.79600
C89         C  0.17743259  0.72321847  0.31602536     0.88600
O90         O  0.16118371  0.84186650  0.27176557    -0.86700
O91         O  0.07640208  0.75941043  0.32056470    -0.86800
O92         O  0.06335102  0.82891661  0.31760437    -0.73900
Mg93       Mg  0.21505869  0.75967157  0.38397252     1.58000
O94         O  0.06755155  0.63604058  0.39156876    -0.81200
H95         H  0.33499344  0.89524200  0.32340508    -0.05000
O96         O  0.18995112  0.92748266  0.32339157    -0.86500
H97         H  0.14218631  0.94609782  0.35011750    -0.04800
H98         H  0.20315883  0.83359986  0.23457213    -0.05000
C99         C  0.17203866  0.93341587  0.35010904     0.88600
C100        C  0.29856709  0.87285336  0.33908085     0.89200
C101        C  0.20487278  0.85568320  0.25692994     0.89200
H102        H  0.01359229  0.75885365  0.34406415    -0.04900
O103        O  0.09491733  0.75942786  0.39765620    -0.74000
Mg104      Mg  0.13148491  0.89574435  0.28321874     1.58000
H105        H  0.14214165  0.82132389  0.43071275    -0.05000
C106        C  0.33023581  0.02975106  0.37984667     0.94200
O107        O  0.28058556  0.01587617  0.27453112    -0.81200
C108        C  0.24837243  0.01148831  0.25137480     0.94300
O109        O  0.27810613  0.79681453  0.42750016    -0.81200
Mg110      Mg  0.07198380  0.69829413  0.35426330     1.58200
O111        O  0.31267232  0.02400416  0.35052119    -0.79500
O112        O  0.03657332  0.66628914  0.26656845    -0.81200
O113        O  0.64115406  0.73105709  0.33865902    -0.86800
C114        C  0.67749095  0.85170008  0.40745656     0.89200
Mg115      Mg  0.69816431  0.73812615  0.30040723     1.58100
O116        O  0.58400252  0.83390551  0.34492874    -0.86500
O117        O  0.55494560  0.70917783  0.34554208    -0.73900
C118        C  0.79755009  0.98982533  0.23729238     0.94300
O119        O  0.76025888  0.82026622  0.36887246    -0.73700
O120        O  0.81318966  0.95545545  0.24017377    -0.81200
Mg121      Mg  0.67394027  0.75090252  0.38793125     1.58000
C122        C  0.61273707  0.97614318  0.29766727     0.94200
O123        O  0.59348793  0.68040614  0.41162157    -0.79400
H124        H  0.51442291  0.78554515  0.31873719    -0.04800
C125        C  0.75042185  0.95662148  0.32893587     0.89100
O126        O  0.65540964  0.76181976  0.26255840    -0.74000
O127        O  0.64555932  0.80708037  0.39301335    -0.86700
O128        O  0.60177184  0.95288377  0.32553228    -0.79500
C129        C  0.55348201  0.87901755  0.42087279     0.94300
C130        C  0.54810856  0.66972899  0.42534708     0.94200
Mg131      Mg  0.66917252  0.90913863  0.27247981     1.58000
O132        O  0.75200354  0.98052378  0.25020121    -0.79500
O133        O  0.58192072  0.83906639  0.29102521    -0.73700
O134        O  0.54683365  0.83051071  0.42150531    -0.79500
O135        O  0.70279330  0.69064291  0.38392665    -0.81200
O136        O  0.78869580  0.82774880  0.23775440    -0.79600
C137        C  0.55822420  0.81847172  0.31852150     0.88600
O138        O  0.69572035  0.85222522  0.26773830    -0.86700
O139        O  0.70015972  0.92727707  0.32197971    -0.86800
O140        O  0.78604538  0.94716100  0.31649642    -0.73900
Mg141      Mg  0.55763961  0.77223338  0.38329589     1.58000
O142        O  0.58258750  0.91402442  0.39868306    -0.81200
H143        H  0.57668904  0.66548865  0.31576342    -0.05000
O144        O  0.75605932  0.82321742  0.31504888    -0.86500
H145        H  0.82696183  0.87156139  0.34006965    -0.04800
H146        H  0.63845948  0.80794516  0.23314355    -0.05000
C147        C  0.78300072  0.83913734  0.34100895     0.88600
C148        C  0.59067631  0.70025877  0.33273304     0.89200
C149        C  0.66294181  0.80784412  0.25331088     0.89200
H150        H  0.76424329  0.99047084  0.34657043    -0.04900
O151        O  0.68424358  0.89728290  0.39795107    -0.74000
Mg152      Mg  0.78262475  0.88511822  0.27769782     1.58000
H153        H  0.70180481  0.85222177  0.42792313    -0.05000
C154        C  0.72878619  0.68243781  0.36120739     0.94200
O155        O  0.75697291  0.74443918  0.25997052    -0.81200
C156        C  0.78296298  0.77981395  0.23735365     0.94300
O157        O  0.52991449  0.70221954  0.42225917    -0.81200
Mg158      Mg  0.64175847  0.91989559  0.35921585     1.58200
O159        O  0.73765615  0.70437851  0.33307743    -0.79500
O160        O  0.64107567  0.96954467  0.27585163    -0.81200
C161        C  0.84332445  0.70710821  0.18731878     0.03800
C162        C  0.89236026  0.70534372  0.18863795     0.03800
C163        C  0.89935391  0.67185412  0.16572978    -0.16700
C164        C  0.85978718  0.64119533  0.14098443     0.03800
C165        C  0.81157566  0.64410237  0.13878753     0.03800
C166        C  0.80379689  0.67679601  0.16216515    -0.16700
H167        H  0.76611929  0.67783446  0.16107738     0.05800
H168        H  0.93646315  0.66978072  0.16709703     0.05800
O169        O  0.45141141  0.04905634  0.00983664    -0.86800
C170        C  0.52713895  0.00179623  0.07578282     0.89200
Mg171      Mg  0.38746554  0.99346818  0.97408755     1.58100
O172        O  0.61365695  0.08867089  0.01192155    -0.86500
O173        O  0.52930586  0.13073375  0.01636393    -0.73900
C174        C  0.50978372  0.86890919  0.90330127     0.94300
O175        O  0.40073966  0.92878383  0.04141714    -0.73700
O176        O  0.45883661  0.85496422  0.90734025    -0.81200
Mg177      Mg  0.43765559  0.01925330  0.05967253     1.58000
C178        C  0.70042825  0.02776446  0.95729292     0.94200
O179        O  0.46361749  0.10392035  0.08293204    -0.79400
H180        H  0.64275603  0.15767955  0.98543590    -0.04800
C181        C  0.53431144  0.91707263  0.99592642     0.89100
O182        O  0.45148701  0.02446587  0.93222879    -0.74000
O183        O  0.52006314  0.03480505  0.06066969    -0.86700
O184        O  0.69906958  0.04415615  0.98656177    -0.79500
C185        C  0.68872175  0.10862408  0.08666621     0.94300
C186        C  0.50439393  0.14255780  0.09930541     0.94200
Mg187      Mg  0.57551767  0.99668523  0.93925460     1.58000
O188        O  0.54951681  0.91347200  0.91622055    -0.79500
O189        O  0.61098025  0.08681755  0.95781714    -0.73700
O190        O  0.64870620  0.11729784  0.08833312    -0.79500
O191        O  0.35372950  0.00642718  0.06065999    -0.81200
O192        O  0.35801023  0.88833276  0.91304326    -0.79600
C193        C  0.62388646  0.11294503  0.98529669     0.88600
O194        O  0.49205278  0.97820885  0.93797588    -0.86700
O195        O  0.56354139  0.96717475  0.98906914    -0.86800
O196        O  0.48523061  0.88540557  0.98438657    -0.73900
Mg197      Mg  0.58566632  0.11955125  0.05232695     1.58000
O198        O  0.69376003  0.08194527  0.06259934    -0.81200
H199        H  0.46504883  0.11759640  0.98747685    -0.05000
O200        O  0.40028507  0.92692004  0.98731321    -0.86500
H201        H  0.36815298  0.85768745  0.01395144    -0.04800
H202        H  0.51005967  0.02995947  0.90049094    -0.05000
C203        C  0.38825279  0.90258979  0.01398218     0.88600
C204        C  0.48080402  0.09954242  0.00387482     0.89200
C205        C  0.48528354  0.01095924  0.92235203     0.89200
H206        H  0.55061355  0.89986887  0.01257270    -0.04900
O207        O  0.56285120  0.99060687  0.06615072    -0.74000
Mg208      Mg  0.42683739  0.89266965  0.94827806     1.58000
H209        H  0.50176681  0.98129576  0.09721848    -0.05000
C210        C  0.31387400  0.98743427  0.04056734     0.94200
O211        O  0.32178350  0.93493463  0.93569560    -0.81200
C212        C  0.32075943  0.90122853  0.91393417     0.94300
O213        O  0.55382006  0.15234433  0.09549624    -0.81200
Mg214      Mg  0.62779664  0.02284454  0.02436023     1.58200
O215        O  0.31631840  0.97112782  0.01151466    -0.79500
O216        O  0.66018859  0.01025540  0.93757653    -0.81200
O217        O  0.57942956  0.59711502  0.98731036    -0.86800
C218        C  0.47557263  0.47245325  0.92334829     0.89200
Mg219      Mg  0.63182913  0.59211350  0.02384552     1.58100
O220        O  0.41718241  0.50872066  0.98786668    -0.86500
O221        O  0.52439310  0.62819433  0.98091477    -0.73900
C222        C  0.45458904  0.35901083  0.10137862     0.94300
O223        O  0.59197576  0.49886456  0.96088980    -0.73700
O224        O  0.50772735  0.38848794  0.09817482    -0.81200
Mg225      Mg  0.58463173  0.56903018  0.93788604     1.58000
C226        C  0.30176738  0.37016412  0.03655375     0.94200
O227        O  0.58118310  0.63752311  0.91197849    -0.79400
H228        H  0.40313278  0.56305845  0.01088127    -0.04800
C229        C  0.43980165  0.38077720  0.00967582     0.89100
O230        O  0.57329992  0.58465709  0.06599611    -0.74000
O231        O  0.49625550  0.51861318  0.93701494    -0.86700
O232        O  0.31630136  0.41017330  0.01738401    -0.79500
C233        C  0.33162844  0.45733091  0.91512017     0.94300
C234        C  0.55056714  0.65340380  0.90026356     0.94200
Mg235      Mg  0.41953831  0.44221901  0.06380836     1.58000
O236        O  0.42352265  0.37339311  0.08860913    -0.79500
O237        O  0.41041136  0.51184213  0.04184016    -0.73700
O238        O  0.37848534  0.50397674  0.91313827    -0.79500
O239        O  0.67822731  0.62859958  0.93678065    -0.81200
O240        O  0.62613461  0.51560044  0.09183167    -0.79600
C241        C  0.40965013  0.52901031  0.01317132     0.88600
O242        O  0.50833328  0.49548693  0.06526157    -0.86700
O243        O  0.42773130  0.41629330  0.01424748    -0.86800
O244        O  0.48330235  0.38617751  0.02231380    -0.73900
Mg245      Mg  0.45402298  0.56310268  0.94727754     1.58000
O246        O  0.31978068  0.42447276  0.93913505    -0.81200
H247        H  0.59626727  0.66941780  0.00736501    -0.05000
O248        O  0.58857873  0.50468005  0.01500439    -0.86500
H249        H  0.59912833  0.44789680  0.99211789    -0.04800
H250        H  0.50895758  0.54842975  0.09875306    -0.05000
C251        C  0.59380707  0.48267092  0.98969507     0.88600
C252        C  0.56838926  0.63324271  0.99237364     0.89200
C253        C  0.52928998  0.54262332  0.07778893     0.89200
H254        H  0.41306718  0.34462190  0.99435944    -0.04900
O255        O  0.43277198  0.42941998  0.93509782    -0.74000
Mg256      Mg  0.55221482  0.45253495  0.05654899     1.58000
H257        H  0.49567224  0.46828380  0.90169311    -0.05000
C258        C  0.70424952  0.63815553  0.96345243     0.94200
O259        O  0.68802118  0.58904899  0.06220401    -0.81200
C260        C  0.67441509  0.56050305  0.08837875     0.94300
O261        O  0.49803576  0.62700237  0.90576943    -0.81200
Mg262      Mg  0.37506340  0.42084439  0.97753636     1.58200
O263        O  0.68914081  0.59936730  0.98365452    -0.79500
O264        O  0.32583882  0.37956701  0.06392123    -0.81200
O265        O  0.05380591  0.45769725  0.99291433    -0.86800
C266        C  0.99218717  0.51081292  0.92318565     0.89200
Mg267      Mg  0.00528003  0.40548977  0.03423502     1.58100
O268        O  0.09476083  0.60458743  0.97935201    -0.86500
O269        O  0.13617303  0.52314918  0.97578793    -0.73900
C270        C  0.90527331  0.54642908  0.10348964     0.94300
O271        O  0.92883385  0.40172057  0.97181094    -0.73700
O272        O  0.89553271  0.49705762  0.10602935    -0.81200
Mg273      Mg  0.01333720  0.42585361  0.94657595     1.58000
C274        C  0.05371036  0.70978747  0.01964988     0.94200
O275        O  0.09309126  0.44437200  0.91822832    -0.79400
H276        H  0.16998661  0.63978090  0.00052200    -0.04800
C277        C  0.93143206  0.54428085  0.00940058     0.89100
O278        O  0.05391682  0.47912404  0.07034669    -0.74000
O279        O  0.02940400  0.50654074  0.93552837    -0.86700
O280        O  0.08096269  0.69605470  0.00179970    -0.79500
C281        C  0.10490257  0.67188825  0.90289911     0.94300
C282        C  0.12817490  0.48044883  0.89798658     0.94200
Mg283      Mg  0.02257689  0.60079716  0.05709457     1.58000
O284        O  0.94247357  0.58181728  0.08394254    -0.79500
O285        O  0.10782722  0.62562140  0.03238356    -0.73700
O286        O  0.11196308  0.63092548  0.90016588    -0.79500
O287        O  0.00267017  0.34264974  0.95797733    -0.81200
O288        O  0.92183130  0.39317850  0.10391145    -0.79600
C289        C  0.12598396  0.62393796  0.00368565     0.88600
O290        O  0.00696790  0.52018054  0.06881573    -0.86700
O291        O  0.98279699  0.56813052  0.01050670    -0.86800
O292        O  0.90038095  0.50283414  0.02761850    -0.73900
Mg293      Mg  0.11702183  0.57155032  0.93861125     1.58000
O294        O  0.08128717  0.67780946  0.92791812    -0.81200
H295        H  0.12401742  0.46603920  0.00990771    -0.05000
O296        O  0.94191814  0.42195015  0.02492726    -0.86500
H297        H  0.86674833  0.38728258  0.00377566    -0.04800
H298        H  0.07212992  0.54629911  0.09891159    -0.05000
C299        C  0.91073176  0.40300223  0.00057512     0.88600
C300        C  0.10518365  0.48136045  0.99380362     0.89200
C301        C  0.04493198  0.51631549  0.08046279     0.89200
H302        H  0.91264322  0.55922269  0.99296259    -0.04900
O303        O  0.98352100  0.54840609  0.93282231    -0.74000
Mg304      Mg  0.91884573  0.45473721  0.06540058     1.58000
H305        H  0.96554097  0.48104751  0.90447273    -0.05000
C306        C  0.97705050  0.31377747  0.98287237     0.94200
O307        O  0.95659539  0.34978508  0.07638622    -0.81200
C308        C  0.93035597  0.35307442  0.10091747     0.94300
O309        O  0.13809076  0.52994481  0.89709589    -0.81200
Mg310      Mg  0.03163844  0.62128648  0.96955652     1.58200
O311        O  0.95395069  0.32932749  0.00296668    -0.79500
O312        O  0.03026518  0.68292014  0.04545068    -0.81200
O313        O  0.28664226  0.06679325  0.67143998    -0.86800
C314        C  0.33037878  0.19151844  0.73933112     0.89200
Mg315      Mg  0.34421408  0.06763227  0.63459961     1.58100
O316        O  0.23709034  0.17613433  0.67741342    -0.86500
O317        O  0.20244001  0.05062383  0.67933829    -0.73900
C318        C  0.45023287  0.31963962  0.56848778     0.94300
O319        O  0.40651269  0.15012760  0.70274865    -0.73700
O320        O  0.46802052  0.28678922  0.57157591    -0.81200
Mg321      Mg  0.31730696  0.08546978  0.72115724     1.58000
C322        C  0.27744757  0.31845230  0.62669377     0.94200
O323        O  0.23334102  0.01736590  0.74452403    -0.79400
H324        H  0.16704535  0.12679371  0.65184694    -0.04800
C325        C  0.40512780  0.29066748  0.66008615     0.89100
O326        O  0.30692101  0.09270810  0.59416440    -0.74000
O327        O  0.29716444  0.14757431  0.72473957    -0.86700
O328        O  0.26366825  0.29785170  0.65528303    -0.79500
C329        C  0.21682560  0.22853703  0.75402025     0.94300
C330        C  0.19398358  0.01569986  0.76112267     0.94200
Mg331      Mg  0.32312867  0.24045786  0.60417857     1.58000
O332        O  0.40414411  0.30808305  0.58128653    -0.79500
O333        O  0.23542494  0.17421631  0.62327073    -0.73700
O334        O  0.21041200  0.18036437  0.75488553    -0.79500
O335        O  0.33577524  0.01914588  0.71862876    -0.81200
O336        O  0.44470556  0.15467137  0.57334414    -0.79600
C337        C  0.21128968  0.15837374  0.65112106     0.88600
O338        O  0.34871368  0.18264727  0.60058670    -0.86700
O339        O  0.35466816  0.26210404  0.65356712    -0.86800
O340        O  0.43959250  0.27931705  0.64797810    -0.73900
Mg341      Mg  0.21083768  0.11752552  0.71680704     1.58000
O342        O  0.24088717  0.26136548  0.72997891    -0.81200
H343        H  0.21937573  0.00393570  0.64872640    -0.05000
O344        O  0.40642162  0.15303169  0.64870986    -0.86500
H345        H  0.47613384  0.19849643  0.67523859    -0.04800
H346        H  0.29592805  0.14163620  0.56346569    -0.05000
C347        C  0.43159840  0.16802331  0.67529315     0.88600
C348        C  0.23582744  0.03894141  0.66574981     0.89200
C349        C  0.31708368  0.13959141  0.58483861     0.89200
H350        H  0.42017432  0.32558566  0.67705661    -0.04900
O351        O  0.33872717  0.23782953  0.73005595    -0.74000
Mg352      Mg  0.43598552  0.21527185  0.61061232     1.58000
H353        H  0.35383935  0.19069081  0.75986587    -0.05000
C354        C  0.35923432  0.00489464  0.69768788     0.94200
O355        O  0.40408313  0.06980894  0.59552347    -0.81200
C356        C  0.43551187  0.10507097  0.57379565     0.94300
O357        O  0.18255014  0.05320347  0.75823668    -0.81200
Mg358      Mg  0.29851389  0.26162903  0.69037270     1.58200
O359        O  0.37605796  0.02798996  0.66981966    -0.79500
O360        O  0.30034165  0.30375701  0.60562664    -0.81200
C361        C  0.20740375  0.37006540  0.85662240     0.03800
C362        C  0.17000913  0.38817595  0.85278123     0.03800
C363        C  0.13308476  0.36759292  0.82593922    -0.16700
C364        C  0.13191571  0.32884700  0.80337721     0.03800
C365        C  0.17148147  0.31316346  0.80608652     0.03800
C366        C  0.20810867  0.33331244  0.83319401    -0.16700
H367        H  0.23894651  0.32205670  0.83558250     0.05800
H368        H  0.10211692  0.37878527  0.82386005     0.05800
C369        C  0.19137599  0.86636148  0.86042769     0.03800
C370        C  0.14817092  0.80890494  0.85812340     0.03800
C371        C  0.10605154  0.79190535  0.83419167    -0.16700
C372        C  0.10584726  0.82980728  0.81224145     0.03800
C373        C  0.15070431  0.88628213  0.81319887     0.03800
C374        C  0.19171322  0.90399721  0.83794588    -0.16700
H375        H  0.22622268  0.94727206  0.83858689     0.05800
H376        H  0.07169978  0.74858866  0.83323842     0.05800
O377        O  0.91415514  0.22825920  0.67318807    -0.86800
C378        C  0.81346040  0.17540034  0.75203089     0.89200
Mg379      Mg  0.90388635  0.27021588  0.63263552     1.58100
O380        O  0.81302501  0.08197296  0.69356216    -0.86500
O381        O  0.93986332  0.17137678  0.68599510    -0.73900
C382        C  0.64054464  0.10265874  0.58546025     0.94300
O383        O  0.84538383  0.27692162  0.70135971    -0.73700
O384        O  0.67911939  0.15366537  0.58034648    -0.81200
Mg385      Mg  0.91600164  0.26452234  0.72004834     1.58000
C386        C  0.65541772  0.95679018  0.66768505     0.94200
O387        O  0.98661463  0.25723474  0.74234413    -0.79400
H388        H  0.85049653  0.04968255  0.66816909    -0.04800
C389        C  0.69230813  0.11951243  0.67619676     0.89100
O390        O  0.87149383  0.19294004  0.59920173    -0.74000
O391        O  0.85497772  0.18261989  0.73688335    -0.86700
O392        O  0.70115722  0.97873714  0.68258371    -0.79500
C393        C  0.77497302  0.01941254  0.77295824     0.94300
C394        C  0.99413531  0.22444546  0.75946047     0.94200
Mg395      Mg  0.71989993  0.06463382  0.62461865     1.58000
O396        O  0.64809916  0.07177957  0.60427224    -0.79500
O397        O  0.79081042  0.05208513  0.64220758    -0.73700
O398        O  0.82503468  0.06240769  0.77241861    -0.79500
O399        O  0.98674672  0.34902720  0.70117215    -0.81200
O400        O  0.81114338  0.26272541  0.57100885    -0.79600
C401        C  0.81952456  0.06092792  0.66823152     0.88600
O402        O  0.78089365  0.14561379  0.60755680    -0.86700
O403        O  0.72251148  0.10098623  0.67142226    -0.86800
O404        O  0.69663558  0.15767338  0.65819938    -0.73900
Mg405      Mg  0.88004035  0.12263148  0.72865454     1.58000
O406        O  0.73923829  0.01165425  0.75171123    -0.81200
H407        H  0.97623077  0.22790212  0.64934027    -0.05000
O408        O  0.82320183  0.24676713  0.65001171    -0.86500
H409        H  0.78607453  0.27964061  0.67516499    -0.04800
H410        H  0.81688319  0.12140961  0.57445305    -0.05000
C411        C  0.81681530  0.26809790  0.67525282     0.88600
C412        C  0.94481280  0.21027988  0.66850920     0.89200
C413        C  0.82237328  0.15222396  0.59264670     0.89200
H414        H  0.66162693  0.10283214  0.69580054    -0.04900
O415        O  0.76447220  0.13449649  0.74543127    -0.74000
Mg416      Mg  0.75574907  0.20508555  0.61487780     1.58000
H417        H  0.81878234  0.20574334  0.77052264    -0.05000
C418        C  0.98223794  0.37088103  0.67552793     0.94200
O419        O  0.89720437  0.31566038  0.59132248    -0.81200
C420        C  0.86107338  0.30573271  0.56975338     0.94300
O421        O  0.95617041  0.17271461  0.76241431    -0.81200
Mg422      Mg  0.73253849  0.05802422  0.71133653     1.58200
O423        O  0.93581103  0.34941884  0.66142424    -0.79500
O424        O  0.65037170  0.98030047  0.64309898    -0.81200
O425        O  0.72359815  0.62852924  0.65613616    -0.86800
C426        C  0.85040793  0.67246249  0.58938369     0.89200
Mg427      Mg  0.72169361  0.68495917  0.69242828     1.58100
O428        O  0.83612531  0.57947857  0.65061662    -0.86500
O429        O  0.71001610  0.54536217  0.64791949    -0.73900
C430        C  0.97388523  0.79328904  0.76168868     0.94300
O431        O  0.80687691  0.74875053  0.62514882    -0.73700
O432        O  0.93947839  0.80911608  0.75819579    -0.81200
Mg433      Mg  0.74343193  0.65919448  0.60671128     1.58000
C434        C  0.97885088  0.62355471  0.70483751     0.94200
O435        O  0.67492834  0.57469020  0.58510668    -0.79400
H436        H  0.78689306  0.50974664  0.67589412    -0.04800
C437        C  0.94716864  0.74869086  0.66880459     0.89100
O438        O  0.74803024  0.64947497  0.73341561    -0.74000
O439        O  0.80697163  0.64026343  0.60445922    -0.86700
O440        O  0.96170325  0.61165431  0.67519952    -0.79500
C441        C  0.88928467  0.55979282  0.57429689     0.94300
C442        C  0.67440361  0.53805070  0.56643266     0.94200
Mg443      Mg  0.89745370  0.66665725  0.72457624     1.58000
O444        O  0.96455235  0.74821128  0.74841308    -0.79500
O445        O  0.83268684  0.57863703  0.70474082    -0.73700
O446        O  0.84144288  0.55452534  0.57314528    -0.79500
O447        O  0.67637406  0.67712586  0.60665326    -0.81200
O448        O  0.80551931  0.78098128  0.75557955    -0.79600
C449        C  0.81795184  0.55404937  0.67681267     0.88600
O450        O  0.83785157  0.69026498  0.72667514    -0.86700
O451        O  0.92068558  0.69829297  0.67523757    -0.86800
O452        O  0.93383946  0.78174596  0.68096988    -0.73900
Mg453      Mg  0.77731373  0.55428037  0.61061388     1.58000
O454        O  0.92237803  0.58347869  0.59864659    -0.81200
H455        H  0.66219344  0.56056868  0.67859745    -0.05000
O456        O  0.80709889  0.74809212  0.67924315    -0.86500
H457        H  0.85266740  0.81821007  0.65361320    -0.04800
H458        H  0.79746928  0.63843842  0.76391078    -0.05000
C459        C  0.82287178  0.77359015  0.65295092     0.88600
C460        C  0.69711868  0.57780376  0.66164637     0.89200
C461        C  0.79504996  0.65912232  0.74249806     0.89200
H462        H  0.98207784  0.76495253  0.65188536    -0.04900
O463        O  0.89694174  0.68032343  0.59819103    -0.74000
Mg464      Mg  0.86867205  0.77673671  0.71811853     1.58000
H465        H  0.84891728  0.69502989  0.56867596    -0.05000
C466        C  0.65919111  0.69842997  0.62722976     0.94200
O467        O  0.72215989  0.74457494  0.73113468    -0.81200
C468        C  0.75627205  0.77292158  0.75432633     0.94300
O469        O  0.71319720  0.52794298  0.56781785    -0.81200
Mg470      Mg  0.92207409  0.64214284  0.63852703     1.58200
O471        O  0.67896041  0.71288690  0.65622733    -0.79500
O472        O  0.96125790  0.64463768  0.72528731    -0.81200
C473        C  0.59730164  0.78306881  0.84712411     0.03800
C474        C  0.60713625  0.83715848  0.85251517     0.03800
C475        C  0.65062357  0.88219826  0.83460820    -0.16700
C476        C  0.68215439  0.87444932  0.81036604     0.03800
C477        C  0.66973041  0.81981483  0.80369600     0.03800
C478        C  0.62732673  0.77525201  0.82177612    -0.16700
H479        H  0.61791404  0.73356084  0.81612334     0.05800
H480        H  0.65898890  0.92381478  0.83905009     0.05800
C481        C  0.00979451  0.51532416  0.47000305     0.03800
C482        C  0.00745100  0.46435205  0.47229072     0.03800
C483        C  0.97626120  0.42756834  0.49774236    -0.16700
C484        C  0.94963134  0.44133278  0.52194975     0.03800
C485        C  0.95645210  0.49463139  0.52173460     0.03800
C486        C  0.98523435  0.53035859  0.49514769    -0.16700
H487        H  0.98903123  0.57042165  0.49413325     0.05800
H488        H  0.97305795  0.38776460  0.49889289     0.05800
C489        C  0.45892740  0.49805259  0.47862944     0.03800
C490        C  0.51650021  0.54052726  0.47624873     0.03800
C491        C  0.55542756  0.53825381  0.49667960    -0.16700
C492        C  0.53895030  0.49531803  0.51962676     0.03800
C493        C  0.48181385  0.45201978  0.52125853     0.03800
C494        C  0.44270807  0.45472406  0.50127862    -0.16700
H495        H  0.39908440  0.42099680  0.50230331     0.05800
H496        H  0.59904529  0.57203056  0.49579769     0.05800
C497        C  0.45393997  0.94673611  0.47668210     0.03800
C498        C  0.51157138  0.96787430  0.47241061     0.03800
C499        C  0.55083016  0.01376955  0.49167063    -0.16700
C500        C  0.53458210  0.03794333  0.51627974     0.03800
C501        C  0.47667140  0.01545869  0.52167417     0.03800
C502        C  0.43729996  0.96973222  0.50198791    -0.16700
H503        H  0.39321601  0.95419183  0.50505975     0.05800
H504        H  0.59501589  0.03041015  0.48778614     0.05800
O505        O  0.08732899  0.99338833  0.98867971    -0.86800
C506        C  0.93744545  0.89705678  0.03611130     0.89200
Mg507      Mg  0.14756777  0.07809756  0.00165816     1.58100
O508        O  0.92527594  0.93232610  0.95538269    -0.86500
O509        O  0.04097260  0.93822119  0.94692826    -0.73900
C510        C  0.99261381  0.18423914  0.00168350     0.94300
O511        O  0.05650037  0.99918107  0.06566321    -0.73700
O512        O  0.03651890  0.19239514  0.01515742    -0.81200
Mg513      Mg  0.05421502  0.93621639  0.02871551     1.58000
C514        C  0.82674728  0.00311329  0.94595821     0.94200
O515        O  0.05957224  0.87432314  0.99631089    -0.79400
H516        H  0.93840270  0.93109358  0.90704594    -0.04800
C517        C  0.92579942  0.03037584  0.03050477     0.89100
O518        O  0.11855656  0.10805134  0.95882351    -0.74000
O519        O  0.97245047  0.91111259  0.01400262    -0.86700
O520        O  0.81851800  0.95610910  0.95454940    -0.79500
C521        C  0.81444134  0.80062737  0.98018652     0.94300
C522        C  0.02121667  0.82473474  0.98986571     0.94200
Mg523      Mg  0.95893417  0.07105634  0.96039588     1.58000
O524        O  0.95698081  0.13852485  0.98817462    -0.79500
O525        O  0.95557662  0.00581901  0.92505549    -0.73700
O526        O  0.86356339  0.81012441  0.98015102    -0.79500
O527        O  0.13770143  0.95962845  0.04377783    -0.81200
O528        O  0.14818474  0.19756709  0.01301112    -0.79600
C529        C  0.93874470  0.95480856  0.92826507     0.88600
O530        O  0.04055737  0.09700412  0.97650617    -0.86700
O531        O  0.92516078  0.01570138  0.00162202    -0.86800
O532        O  0.97052303  0.06866489  0.04412531    -0.73900
Mg533      Mg  0.95126325  0.87587500  0.96583555     1.58000
O534        O  0.80375569  0.83886745  0.97912183    -0.81200
H535        H  0.12309495  0.00045923  0.94475324    -0.05000
O536        O  0.08527840  0.07301478  0.03572650    -0.86500
H537        H  0.07240875  0.07322713  0.08420696    -0.04800
H538        H  0.07234835  0.12918023  0.93238435    -0.05000
C539        C  0.07229098  0.05004512  0.06275918     0.88600
C540        C  0.08570102  0.97840593  0.95971176     0.89200
C541        C  0.07676563  0.11244996  0.95500697     0.89200
H542        H  0.88765303  0.00889390  0.04482352    -0.04900
O543        O  0.89601826  0.90220894  0.03289507    -0.74000
Mg544      Mg  0.05999966  0.12992445  0.02593303     1.58000
H545        H  0.94273006  0.88106710  0.05878545    -0.05000
C546        C  0.18404177  0.00513378  0.04639984     0.94200
O547        O  0.20842347  0.16963322  0.01490900    -0.81200
C548        C  0.19751057  0.20774696  0.01429264     0.94300
O549        O  0.97417955  0.81278697  0.97912374    -0.81200
Mg550      Mg  0.86500428  0.93059136  0.99027799     1.58200
O551        O  0.19118752  0.05205735  0.03888894    -0.79500
O552        O  0.87455464  0.04739138  0.94560227    -0.81200
O553        O  0.70382256  0.28311590  0.28853631    -0.86800
C554        C  0.63854017  0.23710997  0.37909262     0.89200
Mg555      Mg  0.77539625  0.36279852  0.27875368     1.58100
O556        O  0.56805091  0.27129297  0.32320775    -0.86500
O557        O  0.61926992  0.22855747  0.26990561    -0.73900
C558        C  0.73284260  0.54654438  0.35070138     0.94300
O559        O  0.76469345  0.32160136  0.35864094    -0.73700
O560        O  0.77408359  0.54302225  0.34177191    -0.81200
Mg561      Mg  0.71076345  0.23962714  0.32950587     1.58000
C562        C  0.50728142  0.36332894  0.35130703     0.94200
O563        O  0.65926396  0.15321522  0.30410543    -0.79400
H564        H  0.52693242  0.25621851  0.28080830    -0.04800
C565        C  0.67048806  0.40064351  0.38571314     0.89100
O566        O  0.72329198  0.39556352  0.25843458    -0.74000
O567        O  0.63734008  0.23081936  0.34891135    -0.86700
O568        O  0.51072096  0.32303997  0.36016825    -0.79500
C569        C  0.47636215  0.16660716  0.37863379     0.94300
C570        C  0.60831566  0.11274573  0.30198500     0.94200
Mg571      Mg  0.63012500  0.42014234  0.32231445     1.58000
O572        O  0.68208384  0.50568684  0.34869584    -0.79500
O573        O  0.57479892  0.33836630  0.29331079    -0.73700
O574        O  0.50264468  0.15410223  0.35832293    -0.79500
O575        O  0.79241172  0.25011767  0.31188217    -0.81200
O576        O  0.83884836  0.50641161  0.29245277    -0.79600
C577        C  0.55485958  0.28701082  0.29871197     0.88600
O578        O  0.70358493  0.42926006  0.30166431    -0.86700
O579        O  0.63860471  0.37642627  0.36243514    -0.86800
O580        O  0.72249253  0.43311989  0.38108529    -0.73900
Mg581      Mg  0.56627940  0.19595017  0.31670601     1.58000
O582        O  0.49206889  0.21620987  0.38626441    -0.81200
H583        H  0.68778677  0.26811726  0.24042489    -0.05000
O584        O  0.77219055  0.38855280  0.32839150    -0.86500
H585        H  0.81121424  0.40365311  0.37154473    -0.04800
H586        H  0.68232372  0.43616655  0.25609223    -0.05000
C587        C  0.78434571  0.37289344  0.35330789     0.88600
C588        C  0.67146803  0.26001694  0.26526558     0.89200
C589        C  0.70294328  0.42190736  0.27153919     0.89200
H590        H  0.65396538  0.39289113  0.41050501    -0.04900
O591        O  0.62029773  0.26468932  0.39291217    -0.74000
Mg592      Mg  0.77473324  0.46451552  0.33404941     1.58000
H593        H  0.65866667  0.22152169  0.39388871    -0.05000
C594        C  0.83541519  0.29663909  0.30385800     0.94200
O595        O  0.85294537  0.44352482  0.26872359    -0.81200
C596        C  0.86854122  0.49324745  0.27576547     0.94300
O597        O  0.56718876  0.11757663  0.30903244    -0.81200
Mg598      Mg  0.56804336  0.29720212  0.37358995     1.58200
O599        O  0.83273288  0.33716200  0.29441220    -0.79500
O600        O  0.54926127  0.40945045  0.34182790    -0.81200
O601        O  0.29540341  0.71102466  0.71568580    -0.86800
C602        C  0.22794750  0.65542591  0.62427521     0.89200
Mg603      Mg  0.38314515  0.76980320  0.71584146     1.58100
O604        O  0.25158297  0.56471047  0.66653706    -0.86500
O605        O  0.23903444  0.62383453  0.73008730    -0.73900
C606        C  0.51124318  0.68322943  0.62242378     0.94300
O607        O  0.32673935  0.77874473  0.64555330    -0.73700
O608        O  0.51101941  0.72511689  0.63303877    -0.81200
Mg609      Mg  0.25149207  0.73011965  0.68001114     1.58000
C610        C  0.30248623  0.46990450  0.61989545     0.94200
O611        O  0.16804511  0.68654367  0.70976157    -0.79400
H612        H  0.22971973  0.51068543  0.70327195    -0.04800
C613        C  0.35959772  0.64713535  0.59365909     0.89100
O614        O  0.39890668  0.69844260  0.72495205    -0.74000
O615        O  0.23113225  0.65560597  0.65470020    -0.86700
O616        O  0.26378138  0.47975712  0.61928080    -0.79500
C617        C  0.12308630  0.49293979  0.63146249     0.94300
C618        C  0.12458734  0.63713344  0.70981186     0.94200
Mg619      Mg  0.38262982  0.59039811  0.65018525     1.58000
O620        O  0.46715951  0.63424765  0.62115604    -0.79500
O621        O  0.30729032  0.54053654  0.68430100    -0.73700
O622        O  0.13842953  0.54247925  0.63795765    -0.79500
O623        O  0.28018406  0.81358282  0.70456661    -0.81200
O624        O  0.49696724  0.77825811  0.69388918    -0.79600
C625        C  0.26104609  0.53734224  0.68542972     0.88600
O626        O  0.40301298  0.66468076  0.67645133    -0.86700
O627        O  0.33864952  0.61029790  0.61472214    -0.86800
O628        O  0.39695482  0.69742493  0.60094100    -0.73900
Mg629      Mg  0.19029814  0.58152927  0.68276481     1.58000
O630        O  0.15702838  0.48253471  0.61795849    -0.81200
H631        H  0.29089123  0.68583773  0.76191586    -0.05000
O632        O  0.38320941  0.75591899  0.66405101    -0.86500
H633        H  0.40420872  0.80830973  0.62649728    -0.04800
H634        H  0.41229851  0.63517017  0.71864809    -0.05000
C635        C  0.37318936  0.78226973  0.64463736     0.88600
C636        C  0.27539159  0.67458440  0.73700999     0.89200
C637        C  0.40510480  0.66471799  0.70694210     0.89200
H638        H  0.34448639  0.63663740  0.56864282    -0.04900
O639        O  0.23385287  0.62186296  0.60597789    -0.74000
Mg640      Mg  0.44499424  0.73912395  0.64873870     1.58000
H641        H  0.22013664  0.68475731  0.61290009    -0.05000
C642        C  0.33169253  0.85184746  0.70782177     0.94200
O643        O  0.47571868  0.83675258  0.71362945    -0.81200
C644        C  0.51133267  0.82700161  0.70212220     0.94300
O645        O  0.12482418  0.59515006  0.69945912    -0.81200
Mg646      Mg  0.25023023  0.55101573  0.61451735     1.58200
O647        O  0.37016709  0.84166873  0.70930412    -0.79500
O648        O  0.35381781  0.50794951  0.62420325    -0.81200
C649        C  0.02535610  0.62045061  0.71445239    -0.11700
C650        C  0.07117642  0.62822816  0.71737440    -0.13300
C651        C  0.56492296  0.69160501  0.61580331    -0.11700
C652        C  0.61096834  0.69957607  0.61858334    -0.13300
C653        C  0.73731051  0.79602291  0.78102166    -0.14900
C654        C  0.69649461  0.80646792  0.77624095    -0.30100
H655        H  0.75625053  0.80348667  0.80516944     0.14100
H656        H  0.67873377  0.80077928  0.75187647     0.14700
C657        C  0.57885303  0.50409799  0.54633926    -0.14900
C658        C  0.62933599  0.51058678  0.54117919    -0.30100
H659        H  0.56809848  0.51086891  0.57097141     0.14100
H660        H  0.63951981  0.50109264  0.51712221     0.14700
C661        C  0.90676829  0.53832730  0.54605031    -0.14900
C662        C  0.93692804  0.51470018  0.54994024    -0.30100
H663        H  0.89252321  0.53980999  0.52162445     0.14100
H664        H  0.94685722  0.50890465  0.57467713     0.14700
C665        C  0.56571400  0.87159638  0.69334544    -0.11700
C666        C  0.60791121  0.90860087  0.68117924    -0.13300
C667        C  0.07128794  0.44943154  0.64476921    -0.11700
C668        C  0.03057266  0.41536731  0.65973835    -0.13300
C669        C  0.75511071  0.97544967  0.79814843    -0.14900
C670        C  0.72064776  0.92146258  0.78846453    -0.30100
H671        H  0.76333221  0.98698851  0.82400548     0.14100
H672        H  0.71672200  0.91164388  0.76227140     0.14700
C673        C  0.58034653  0.08338936  0.53673462    -0.14900
C674        C  0.58553434  0.07500314  0.56855151    -0.30100
H675        H  0.61689076  0.11624198  0.52391610     0.14100
H676        H  0.55112079  0.03804649  0.58014869     0.14700
C677        C  0.87970040  0.34619779  0.54271526    -0.14900
C678        C  0.91877880  0.40076118  0.54854765    -0.30100
H679        H  0.86412402  0.33129800  0.51799192     0.14100
H680        H  0.93108857  0.41554979  0.57370875     0.14700
C681        C  0.05953721  0.80657746  0.78759054    -0.14900
C682        C  0.02533339  0.82581764  0.78255094    -0.30100
H683        H  0.04900784  0.76724200  0.77608871     0.14100
H684        H  0.03340280  0.86345457  0.79522857     0.14700
C685        C  0.04769987  0.24803514  0.77753550    -0.14900
C686        C  0.08599248  0.30352405  0.77882943    -0.30100
H687        H  0.05361164  0.22012478  0.79239557     0.14100
H688        H  0.07813991  0.33179055  0.76581219     0.14700
C689        C  0.27529681  0.36611829  0.61966042    -0.11700
C690        C  0.28638350  0.41307141  0.61742200    -0.13300
C691        C  0.35963539  0.95597170  0.70432005    -0.11700
C692        C  0.34811157  0.90899692  0.70787333    -0.13300
C693        C  0.16408664  0.97121617  0.78612596    -0.14900
C694        C  0.16375142  0.92349092  0.78458955    -0.30100
H695        H  0.14624263  0.97975606  0.80747494     0.14100
H696        H  0.17979825  0.91410826  0.76269783     0.14700
C697        C  0.18061109  0.28371599  0.77833416    -0.14900
C698        C  0.19759895  0.24789017  0.78228599    -0.30100
H699        H  0.17547586  0.29398808  0.75354164     0.14100
H700        H  0.19863677  0.23352720  0.80669245     0.14700
C701        C  0.46282927  0.08803199  0.54855838    -0.14900
C702        C  0.45457239  0.03633664  0.54789243    -0.30100
H703        H  0.48954413  0.11801100  0.53007052     0.14100
H704        H  0.42562670  0.00562480  0.56538767     0.14700
C705        C  0.48139161  0.37188450  0.54869447    -0.14900
C706        C  0.45950059  0.40389020  0.54415615    -0.30100
H707        H  0.52019167  0.38243950  0.53655551     0.14100
H708        H  0.41917261  0.39079619  0.55517676     0.14700
C709        C  0.98441869  0.22900295  0.99831699    -0.11700
C710        C  0.97864282  0.26609922  0.99054860    -0.13300
C711        C  0.03144891  0.78210782  0.99737397    -0.11700
C712        C  0.04290127  0.75021359  0.00800793    -0.13300
C713        C  0.12295864  0.71361389  0.87629853    -0.14900
C714        C  0.14129318  0.76775580  0.88328145    -0.30100
H715        H  0.11919246  0.69954959  0.85089895     0.14100
H716        H  0.14899919  0.78197164  0.90878087     0.14700
C717        C  0.15438307  0.46213177  0.87338964    -0.14900
C718        C  0.16132748  0.41958468  0.87937902    -0.30100
H719        H  0.16336111  0.48032353  0.84906845     0.14100
H720        H  0.15576031  0.40397509  0.90425183     0.14700
C721        C  0.24074362  0.26507130  0.01783635    -0.11700
C722        C  0.26903119  0.31383082  0.02489689    -0.13300
C723        C  0.77070232  0.74361483  0.97881059    -0.11700
C724        C  0.74067461  0.69462033  0.97340728    -0.13300
C725        C  0.57938189  0.70216975  0.87855706    -0.14900
C726        C  0.56118819  0.73523041  0.86935496    -0.30100
H727        H  0.62090804  0.71310239  0.87074734     0.14100
H728        H  0.52238169  0.72886513  0.87918105     0.14700
C729        C  0.28997890  0.44090432  0.88854612    -0.14900
C730        C  0.24607225  0.38805266  0.88495229    -0.30100
H731        H  0.29680284  0.47199223  0.87064149     0.14100
H732        H  0.24121127  0.35583101  0.90129797     0.14700
C733        C  0.74585136  0.02184697  0.94714481    -0.11700
C734        C  0.78042695  0.00992216  0.94220279    -0.13300
C735        C  0.26714274  0.99111068  0.04988219    -0.11700
C736        C  0.23087580  0.00082898  0.05303484    -0.13300
C737        C  0.27418957  0.87488333  0.88922286    -0.14900
C738        C  0.23623650  0.88977124  0.88622287    -0.30100
H739        H  0.27138639  0.84284433  0.87279836     0.14100
H740        H  0.24107832  0.92417289  0.90121731     0.14700
C741        C  0.58074685  0.85184017  0.87961686    -0.14900
C742        C  0.52616664  0.83655926  0.88138066    -0.30100
H743        H  0.61071344  0.88494543  0.89595255     0.14100
H744        H  0.49554386  0.80485947  0.86467560     0.14700
C745        C  0.87247165  0.60977498  0.11660878    -0.14900
C746        C  0.87609688  0.56587991  0.12500688    -0.30100
H747        H  0.88468820  0.62694753  0.09206982     0.14100
H748        H  0.86170116  0.54728265  0.14907370     0.14700
C749        C  0.77080308  0.61598662  0.11128217    -0.14900
C750        C  0.71505992  0.58172954  0.11606844    -0.30100
H751        H  0.78734906  0.62411815  0.08635489     0.14100
H752        H  0.69883100  0.57022343  0.14094889     0.14700
C753        C  0.59841316  0.01667341  0.29256038    -0.11700
C754        C  0.59788383  0.05875399  0.29386561    -0.13300
C755        C  0.74240741  0.64121708  0.36528452    -0.11700
C756        C  0.74284955  0.59934863  0.36149336    -0.10300
C757        C  0.52641025  0.89574398  0.44631957    -0.14900
C758        C  0.53339631  0.94692512  0.44623584    -0.30100
H759        H  0.50119177  0.86637602  0.46543483     0.14100
H760        H  0.56077728  0.97714382  0.42803554     0.14700
C761        C  0.51748879  0.61887601  0.44627039    -0.14900
C762        C  0.53950421  0.58757177  0.45243455    -0.30100
H763        H  0.47862868  0.60896197  0.45804284     0.14100
H764        H  0.58011245  0.60040113  0.44194298     0.14700
C765        C  0.80596031  0.76368726  0.20953950    -0.14900
C766        C  0.82891552  0.73320592  0.21447195    -0.30100
H767        H  0.80303488  0.77583911  0.18483348     0.14100
H768        H  0.83570508  0.72535259  0.23950593     0.14700
C769        C  0.37678479  0.08241420  0.38966461    -0.11700
C770        C  0.42320826  0.12296459  0.38984384    -0.13300
C771        C  0.92508127  0.53555165  0.26927108    -0.11700
C772        C  0.97240769  0.57341037  0.27338722    -0.13300
C773        C  0.03540202  0.55227450  0.44101817    -0.14900
C774        C  0.07812984  0.60587271  0.44399211    -0.30100
H775        H  0.01787520  0.53509607  0.41691277     0.14100
H776        H  0.09769578  0.62149267  0.46787856     0.14700
C777        C  0.41294886  0.91207265  0.45037488    -0.14900
C778        C  0.36161748  0.86653296  0.45603044    -0.30100
H779        H  0.42331708  0.92890500  0.42567998     0.14100
H780        H  0.35132753  0.84716772  0.48002785     0.14700
C781        C  0.97743473  0.78624331  0.21577189    -0.14900
C782        C  0.93462619  0.73195155  0.21544793    -0.30100
H783        H  0.97756366  0.81521144  0.19860054     0.14100
H784        H  0.93565729  0.70322611  0.23230585     0.14700
C785        C  0.90877060  0.30789015  0.12595241    -0.14900
C786        C  0.89828697  0.25640311  0.11781325    -0.30100
H787        H  0.89970594  0.31600628  0.15069677     0.14100
H788        H  0.90379583  0.24744679  0.09246605     0.14700
C789        C  0.72867742  0.12787372  0.11454914    -0.14900
C790        C  0.78441148  0.15137099  0.11062493    -0.30100
H791        H  0.71148006  0.12231269  0.13923333     0.14100
H792        H  0.80224180  0.16140967  0.08602121     0.14700
C793        C  0.83208593  0.04113257  0.21747462    -0.14900
C794        C  0.81471912  0.07615637  0.21164974    -0.30100
H795        H  0.87000092  0.04818059  0.20573291     0.14100
H796        H  0.77501113  0.06674939  0.22197184     0.14700
C797        C  0.44607571  0.27801929  0.13198778    -0.14900
C798        C  0.42523159  0.30806594  0.12147271    -0.30100
H799        H  0.48752682  0.28882165  0.12420643     0.14100
H800        H  0.38186788  0.29338815  0.12707437     0.14700
C801        C  0.49153254  0.17301889  0.12489542    -0.14900
C802        C  0.44154454  0.16909262  0.12528722    -0.30100
H803        H  0.52065008  0.19414839  0.14504666     0.14100
H804        H  0.41318311  0.14858447  0.10473123     0.14700
C805        C  0.32479170  0.09998508  0.22671986    -0.14900
C806        C  0.27086973  0.05658491  0.22631621    -0.30100
H807        H  0.35289486  0.10204842  0.24545123     0.14100
H808        H  0.24339062  0.05349777  0.20682201     0.14700
C809        C  0.45292308  0.35371126  0.35260927    -0.11700
C810        C  0.40389773  0.33427905  0.35602666    -0.13300
C811        C  0.93820547  0.32130397  0.30815923    -0.11700
C812        C  0.88992638  0.30631816  0.30607125    -0.13300
C813        C  0.06959893  0.43004572  0.45708638    -0.14900
C814        C  0.03568111  0.44757057  0.44798119    -0.30100
H815        H  0.08122729  0.43258680  0.48272120     0.14100
H816        H  0.02830242  0.44951971  0.42201841     0.14700
C817        C  0.36625604  0.48186193  0.46029045    -0.14900
C818        C  0.41742474  0.49071678  0.45327077    -0.30100
H819        H  0.35673512  0.48873966  0.48519779     0.14100
H820        H  0.42743947  0.48657776  0.42792231     0.14700
C821        C  0.98320369  0.17481788  0.21034970    -0.14900
C822        C  0.93502909  0.17373892  0.21481302    -0.30100
H823        H  0.99259543  0.16407706  0.18642509     0.14100
H824        H  0.92470143  0.18237735  0.23908598     0.14700
C825        C  0.27576577  0.21624534  0.21712356    -0.14900
C826        C  0.30928918  0.19744068  0.22504630    -0.30100
H827        H  0.26760805  0.21924557  0.19145093     0.14100
H828        H  0.31365630  0.19040544  0.25071521     0.14700
loop_ 
_geom_bond_atom_site_label_1 
_geom_bond_atom_site_label_2 
_geom_bond_distance 
_geom_bond_site_symmetry_2 
_ccdc_geom_bond_type 
O1           Mg3   2.173       .  S
O1           Mg9   2.137       .  S
O1           C36   1.235       .  S
C2           O15   1.233       .  S
C2           O39   1.267       .  A
C2           H41   1.081       .  S
Mg3          O32   2.161       .  S
Mg3          O47   2.275       .  S
Mg3          O43   2.246       .  S
Mg3          O14   2.289       .  S
O4          Mg46   2.148       .  S
O4          Mg29   2.162       .  S
O4           C25   1.242       .  S
O5           C36   1.273       .  A
O5          Mg29   2.325       .  S
C6            O8   1.280       .  A
C6           O20   1.269       .  A
C6          C817   1.496       .  S
O7           C35   1.276       .  A
O7           Mg9   2.316       .  S
O8          Mg40   2.352       .  S
Mg9          O15   2.130       .  S
Mg9          O23   2.199       .  S
Mg9          O11   2.283       .  S
C10          O48   1.254       .  A
C10          O16   1.261       .  A
C10         C810   1.414       .  S
O11          C18   1.268       .  A
H12          C25   1.081       .  S
C13          O27   1.235       .  S
C13          O28   1.272       .  A
C13          H38   1.081       .  S
O14          C37   1.265       .  A
O15         Mg29   2.141       .  S
O16         Mg46   2.244       .  S
C17          O30   1.270       .  A
C17          O22   1.285       .  A
C17         C825   1.488       .  S
C18          O45   1.279       .  A
C18         C821   1.494   1_455  S
Mg19         O26   2.116       .  S
Mg19         O27   2.140       .  S
Mg19         O20   2.291       .  S
Mg19         O21   2.335       .  S
Mg19         O48   2.198       .  S
O21          C25   1.279       .  A
O22         Mg29   2.382       .  S
O23          C42   1.257   1_455  A
O24          C44   1.283       .  A
O24         Mg40   2.359       .  S
O26         Mg40   2.146       .  S
O26          C37   1.232       .  S
O27         Mg46   2.184       .  S
O28         Mg40   2.320       .  S
Mg29         O45   2.347       .  S
O30         Mg46   2.256       .  S
H31          C36   1.081       .  S
O32         Mg40   2.169       .  S
O32          C35   1.240       .  S
H33          C35   1.081       .  S
H34          C37   1.081       .  S
O39         Mg46   2.296       .  S
C42          O47   1.266   1_655  A
C42         C811   1.419       .  S
O43          C44   1.271       .  A
C44         C813   1.480       .  S
C49         C826   1.498       .  S
C49          C50   1.417       .  A
C49          C54   1.405       .  A
C50         C805   1.491       .  S
C50          C51   1.414       .  A
C51          H56   1.084       .  S
C51          C52   1.413       .  A
C52         C802   1.498       .  S
C52          C53   1.417       .  A
C53         C797   1.500       .  S
C53          C54   1.416       .  A
C54          H55   1.083       .  S
C57         C822   1.492       .  S
C57          C58   1.416       .  A
C57          C62   1.416       .  A
C58         C794   1.488       .  S
C58          C59   1.405       .  A
C59          H64   1.084       .  S
C59          C60   1.407       .  A
C60         C790   1.500       .  S
C60          C61   1.420       .  A
C61         C786   1.496       .  S
C61          C62   1.416       .  A
C62          H63   1.084       .  S
O65         Mg67   2.169       .  S
O65         Mg73   2.149       .  S
O65         C100   1.238       .  S
C66          O79   1.233       .  S
C66         O103   1.266       .  A
C66         H105   1.081       .  S
Mg67         O96   2.166       .  S
Mg67        O111   2.287   1_565  S
Mg67        O107   2.274   1_565  S
Mg67         O78   2.281       .  S
O68        Mg110   2.166       .  S
O68         Mg93   2.159       .  S
O68          C89   1.240       .  S
O69         C100   1.274       .  A
O69         Mg93   2.318       .  S
C70          O72   1.280       .  A
C70          O84   1.272       .  A
C70         C781   1.497   1_455  S
O71          C99   1.273       .  A
O71         Mg73   2.303       .  S
O72        Mg104   2.343       .  S
Mg73         O79   2.116       .  S
Mg73         O87   2.204       .  S
Mg73         O75   2.290       .  S
C74         O112   1.258       .  A
C74          O80   1.274       .  A
C74         C772   1.419   1_455  S
O75          C82   1.271       .  A
H76          C89   1.081       .  S
C77          O91   1.238       .  S
C77          O92   1.274       .  A
C77         H102   1.081       .  S
O78         C101   1.264       .  A
O79         Mg93   2.136       .  S
O80        Mg110   2.307       .  S
C81          O94   1.278       .  A
C81          O86   1.280       .  A
C81         C774   1.487       .  S
C82         O109   1.277       .  A
C82         C778   1.487       .  S
Mg83         O90   2.108       .  S
Mg83         O91   2.151       .  S
Mg83         O84   2.285       .  S
Mg83         O85   2.306       .  S
Mg83        O112   2.189       .  S
O85          C89   1.274       .  A
O86         Mg93   2.340       .  S
O87         C106   1.260   1_565  A
O88         C108   1.286   1_565  A
O88        Mg104   2.378       .  S
O90        Mg104   2.144       .  S
O90         C101   1.232       .  S
O91        Mg110   2.178       .  S
O92        Mg104   2.319       .  S
Mg93        O109   2.329       .  S
O94        Mg110   2.299       .  S
H95         C100   1.081       .  S
O96        Mg104   2.153       .  S
O96          C99   1.240       .  S
H97          C99   1.081       .  S
H98         C101   1.081       .  S
O103       Mg110   2.292       .  S
C106        O111   1.271       .  A
C106        C769   1.418       .  S
O107        C108   1.276       .  A
C108        C806   1.496       .  S
O113       Mg115   2.160       .  S
O113       Mg121   2.153       .  S
O113        C148   1.235       .  S
C114        O127   1.235       .  S
C114        O151   1.268       .  A
C114        H153   1.081       .  S
Mg115       O144   2.145       .  S
Mg115       O159   2.271       .  S
Mg115       O155   2.265       .  S
Mg115       O126   2.288       .  S
O116       Mg158   2.158       .  S
O116       Mg141   2.172       .  S
O116        C137   1.240       .  S
O117        C148   1.270       .  A
O117       Mg141   2.306       .  S
C118        O120   1.276       .  A
C118        O132   1.277       .  A
C118        C793   1.490   1_565  S
O119        C147   1.272       .  A
O119       Mg121   2.302       .  S
O120       Mg152   2.298       .  S
Mg121       O127   2.140       .  S
Mg121       O135   2.257       .  S
Mg121       O123   2.291       .  S
C122        O160   1.266       .  A
C122        O128   1.270       .  A
C122        C753   1.428   1_565  S
O123        C130   1.275       .  A
H124        C137   1.081       .  S
C125        O139   1.237       .  S
C125        O140   1.271       .  A
C125        H150   1.081       .  S
O126        C149   1.268       .  A
O127       Mg141   2.168       .  S
O128       Mg158   2.291       .  S
C129        O142   1.271       .  A
C129        O134   1.285       .  A
C129        C757   1.495       .  S
C130        O157   1.282       .  A
C130        C761   1.497       .  S
Mg131       O138   2.119       .  S
Mg131       O139   2.146       .  S
Mg131       O132   2.312       .  S
Mg131       O133   2.317       .  S
Mg131       O160   2.243       .  S
O133        C137   1.275       .  A
O134       Mg141   2.383       .  S
O135        C154   1.268       .  A
O136        C156   1.280       .  A
O136       Mg152   2.348       .  S
O138       Mg152   2.153       .  S
O138        C149   1.235       .  S
O139       Mg158   2.156       .  S
O140       Mg152   2.306       .  S
Mg141       O157   2.341       .  S
O142       Mg158   2.248       .  S
H143        C148   1.081       .  S
O144       Mg152   2.146       .  S
O144        C147   1.238       .  S
H145        C147   1.081       .  S
H146        C149   1.081       .  S
O151       Mg158   2.290       .  S
C154        O159   1.268       .  A
C154        C755   1.426       .  S
O155        C156   1.272       .  A
C156        C765   1.481       .  S
C161        C766   1.489       .  S
C161        C162   1.417       .  A
C161        C166   1.415       .  A
C162        C782   1.491       .  S
C162        C163   1.405       .  A
C163        H168   1.085       .  S
C163        C164   1.406       .  A
C164        C745   1.486       .  S
C164        C165   1.414       .  A
C165        C749   1.494       .  S
C165        C166   1.412       .  A
C166        H167   1.084       .  S
O169       Mg171   2.191   1_544  S
O169       Mg177   2.159       .  S
O169        C204   1.238       .  S
C170        O183   1.232       .  S
C170        O207   1.267   1_545  A
C170        H209   1.081   1_545  S
Mg171       O200   2.181       .  S
Mg171       O215   2.316   1_556  S
Mg171       O211   2.307       .  S
Mg171       O182   2.286   1_565  S
O172       Mg214   2.177       .  S
O172       Mg197   2.180       .  S
O172        C193   1.239   1_554  S
O173        C204   1.275       .  A
O173       Mg197   2.323       .  S
C174        O176   1.284       .  A
C174        O188   1.267       .  A
C174        C742   1.506       .  S
O175        C203   1.273       .  A
O175       Mg177   2.303   1_565  S
O176       Mg208   2.381       .  S
Mg177       O183   2.130       .  S
Mg177       O191   2.202       .  S
Mg177       O179   2.290       .  S
C178        O216   1.260       .  A
C178        O184   1.277       .  A
C178        C733   1.438       .  S
O179        C186   1.270       .  A
H180        C193   1.081       .  S
C181        O195   1.237       .  S
C181        O196   1.273       .  A
C181        H206   1.081   1_556  S
O182        C205   1.265       .  A
O183       Mg197   2.138       .  S
O184       Mg214   2.334   1_556  S
C185        O198   1.279       .  A
C185        O190   1.282       .  A
C185        C789   1.487       .  S
C186        O213   1.280       .  A
C186        C801   1.502       .  S
Mg187       O194   2.129       .  S
Mg187       O195   2.158       .  S
Mg187       O188   2.251       .  S
Mg187       O189   2.305   1_565  S
Mg187       O216   2.214   1_565  S
O189        C193   1.273       .  A
O190       Mg197   2.349       .  S
O191        C210   1.259   1_545  A
O192        C212   1.288       .  A
O192       Mg208   2.380       .  S
O194       Mg208   2.165       .  S
O194        C205   1.232   1_565  S
O195       Mg214   2.183   1_566  S
O196       Mg208   2.316       .  S
Mg197       O213   2.358       .  S
O198       Mg214   2.310       .  S
H199        C204   1.081   1_556  S
O200       Mg208   2.174       .  S
O200        C203   1.238   1_556  S
H201        C203   1.081       .  S
H202        C205   1.081       .  S
O207       Mg214   2.298   1_565  S
C210        O215   1.275       .  A
C210        C735   1.427       .  S
O211        C212   1.280       .  A
C212        C737   1.502       .  S
O217       Mg219   2.171   1_556  S
O217       Mg225   2.181       .  S
O217        C252   1.234       .  S
C218        O231   1.235       .  S
C218        O255   1.268       .  A
C218        H257   1.081       .  S
Mg219       O248   2.122       .  S
Mg219       O263   2.221   1_554  S
Mg219       O259   2.276       .  S
Mg219       O230   2.301       .  S
O220       Mg262   2.145       .  S
O220       Mg245   2.125       .  S
O220        C241   1.241   1_556  S
O221        C252   1.268       .  A
O221       Mg245   2.298       .  S
C222        O224   1.277       .  A
C222        O236   1.269       .  A
C222        C798   1.478       .  S
O223        C251   1.277       .  A
O223       Mg225   2.322       .  S
O224       Mg256   2.314       .  S
Mg225       O231   2.114       .  S
Mg225       O239   2.254       .  S
Mg225       O227   2.274       .  S
C226        O264   1.260       .  A
C226        O232   1.260       .  A
C226        C722   1.426       .  S
O227        C234   1.271       .  A
H228        C241   1.081       .  S
C229        O243   1.235       .  S
C229        O244   1.270       .  A
C229        H254   1.081   1_554  S
O230        C253   1.272       .  A
O231       Mg245   2.186       .  S
O232       Mg262   2.212   1_554  S
C233        O246   1.274       .  A
C233        O238   1.279       .  A
C233        C729   1.483       .  S
C234        O261   1.275       .  A
C234        C725   1.474       .  S
Mg235       O242   2.130       .  S
Mg235       O243   2.185       .  S
Mg235       O236   2.269       .  S
Mg235       O237   2.319       .  S
Mg235       O264   2.268       .  S
O237        C241   1.276       .  A
O238       Mg245   2.336       .  S
O239        C258   1.260       .  A
O240        C260   1.283       .  A
O240       Mg256   2.368       .  S
O242       Mg256   2.178       .  S
O242        C253   1.238       .  S
O243       Mg262   2.176   1_554  S
O244       Mg256   2.307       .  S
Mg245       O261   2.307       .  S
O246       Mg262   2.266       .  S
H247        C252   1.081   1_554  S
O248       Mg256   2.125       .  S
O248        C251   1.242   1_554  S
H249        C251   1.081       .  S
H250        C253   1.081       .  S
O255       Mg262   2.286       .  S
C258        O263   1.260       .  A
C258        C724   1.418       .  S
O259        C260   1.274       .  A
C260        C750   1.490       .  S
O265       Mg267   2.180   1_556  S
O265       Mg273   2.136       .  S
O265        C300   1.233       .  S
C266        O279   1.236   1_655  S
C266        O303   1.270       .  A
C266        H305   1.081       .  S
Mg267       O296   2.120   1_455  S
Mg267       O311   2.231   1_455  S
Mg267       O307   2.245   1_455  S
Mg267       O278   2.296       .  S
O268       Mg310   2.122       .  S
O268       Mg293   2.138       .  S
O268        C289   1.242   1_556  S
O269        C300   1.270       .  A
O269       Mg293   2.314       .  S
C270        O272   1.280       .  A
C270        O284   1.274       .  A
C270        C746   1.485       .  S
O271        C299   1.279   1_556  A
O271       Mg273   2.335   1_655  S
O272       Mg304   2.314       .  S
Mg273       O279   2.136       .  S
Mg273       O287   2.268       .  S
Mg273       O275   2.321       .  S
C274        O312   1.261       .  A
C274        O280   1.253       .  A
C274        C712   1.425       .  S
O275        C282   1.277       .  A
H276        C289   1.081       .  S
C277        O291   1.233       .  S
C277        O292   1.269       .  A
C277        H302   1.081   1_554  S
O278        C301   1.271       .  A
O279       Mg293   2.160       .  S
O280       Mg310   2.222   1_554  S
C281        O294   1.268       .  A
C281        O286   1.283       .  A
C281        C713   1.488       .  S
C282        O309   1.277       .  A
C282        C717   1.482       .  S
Mg283       O290   2.145       .  S
Mg283       O291   2.141   1_455  S
Mg283       O284   2.296   1_455  S
Mg283       O285   2.339       .  S
Mg283       O312   2.278       .  S
O285        C289   1.280       .  A
O286       Mg293   2.378       .  S
O287        C306   1.263   1_455  A
O288        C308   1.286       .  A
O288       Mg304   2.401       .  S
O290       Mg304   2.174   1_455  S
O290        C301   1.237       .  S
O291       Mg310   2.181   1_654  S
O292       Mg304   2.313       .  S
Mg293       O309   2.292       .  S
O294       Mg310   2.244       .  S
H295        C300   1.081   1_554  S
O296       Mg304   2.137       .  S
O296        C299   1.242       .  S
H297        C299   1.081       .  S
H298        C301   1.081       .  S
O303       Mg310   2.298   1_655  S
C306        O311   1.254   1_556  A
C306        C710   1.417       .  S
O307        C308   1.268       .  A
C308        C785   1.498       .  S
O313       Mg315   2.191       .  S
O313       Mg321   2.152       .  S
O313        C348   1.237       .  S
C314        O327   1.233       .  S
C314        O351   1.267       .  A
C314        H353   1.081       .  S
Mg315       O344   2.168       .  S
Mg315       O359   2.302       .  S
Mg315       O355   2.286       .  S
Mg315       O326   2.283       .  S
O316       Mg358   2.154       .  S
O316       Mg341   2.150       .  S
O316        C337   1.239       .  S
O317        C348   1.274       .  A
O317       Mg341   2.324       .  S
C318        O320   1.283       .  A
C318        O332   1.269       .  A
C318        C705   1.499       .  S
O319        C347   1.274       .  A
O319       Mg321   2.311       .  S
O320       Mg352   2.359       .  S
Mg321       O327   2.124       .  S
Mg321       O335   2.206       .  S
Mg321       O323   2.318       .  S
C322        O360   1.261       .  A
C322        O328   1.270       .  A
C322        C689   1.419       .  S
O323        C330   1.275       .  A
H324        C337   1.082       .  S
C325        O339   1.236       .  S
C325        O340   1.271       .  A
C325        H350   1.081       .  S
O326        C349   1.265       .  A
O327       Mg341   2.140       .  S
O328       Mg358   2.288       .  S
C329        O342   1.274       .  A
C329        O334   1.279       .  A
C329        C698   1.483       .  S
C330        O357   1.274       .  A
C330        C693   1.491   1_545  S
Mg331       O338   2.120       .  S
Mg331       O339   2.149       .  S
Mg331       O332   2.259       .  S
Mg331       O333   2.303       .  S
Mg331       O360   2.208       .  S
O333        C337   1.273       .  A
O334       Mg341   2.345       .  S
O335        C354   1.261       .  A
O336        C356   1.287       .  A
O336       Mg352   2.380       .  S
O338       Mg352   2.165       .  S
O338        C349   1.232       .  S
O339       Mg358   2.164       .  S
O340       Mg352   2.307       .  S
Mg341       O357   2.306       .  S
O342       Mg358   2.275       .  S
H343        C348   1.081       .  S
O344       Mg352   2.168       .  S
O344        C347   1.239       .  S
H345        C347   1.081       .  S
H346        C349   1.081       .  S
O351       Mg358   2.293       .  S
C354        O359   1.272       .  A
C354        C691   1.424   1_545  S
O355        C356   1.277       .  A
C356        C701   1.499       .  S
C361        C730   1.482       .  S
C361        C362   1.413       .  A
C361        C366   1.407       .  A
C362        C718   1.489       .  S
C362        C363   1.406       .  A
C363        H368   1.085       .  S
C363        C364   1.406       .  A
C364        C686   1.486       .  S
C364        C365   1.415       .  A
C365        C697   1.493       .  S
C365        C366   1.410       .  A
C366        H367   1.084       .  S
C369        C738   1.502       .  S
C369        C370   1.422       .  A
C369        C374   1.414       .  A
C370        C714   1.497       .  S
C370        C371   1.413       .  A
C371        H376   1.084       .  S
C371        C372   1.412       .  A
C372        C681   1.497       .  S
C372        C373   1.414       .  A
C373        C694   1.489       .  S
C373        C374   1.413       .  A
C374        H375   1.085       .  S
O377       Mg379   2.161       .  S
O377       Mg385   2.137       .  S
O377        C412   1.231       .  S
C378        O391   1.237       .  S
C378        O415   1.271       .  A
C378        H417   1.081       .  S
Mg379       O408   2.123       .  S
Mg379       O423   2.234       .  S
Mg379       O419   2.205       .  S
Mg379       O390   2.294       .  S
O380       Mg422   2.119       .  S
O380       Mg405   2.151       .  S
O380        C401   1.242       .  S
O381        C412   1.266       .  A
O381       Mg405   2.300       .  S
C382        O384   1.281       .  A
C382        O396   1.275       .  A
C382        C674   1.487       .  S
O383        C411   1.280       .  A
O383       Mg385   2.344       .  S
O384       Mg416   2.327       .  S
Mg385       O391   2.139       .  S
Mg385       O399   2.287       .  S
Mg385       O387   2.313       .  S
C386        O424   1.262       .  A
C386        O392   1.254       .  A
C386        C666   1.420       .  S
O387        C394   1.278       .  A
H388        C401   1.081       .  S
C389        O403   1.232       .  S
C389        O404   1.267       .  A
C389        H414   1.081       .  S
O390        C413   1.271       .  A
O391       Mg405   2.185       .  S
O392       Mg422   2.237   1_565  S
C393        O406   1.262       .  A
C393        O398   1.282       .  A
C393        C669   1.483   1_545  S
C394        O421   1.279       .  A
C394        C685   1.486   1_655  S
Mg395       O402   2.125       .  S
Mg395       O403   2.131       .  S
Mg395       O396   2.311       .  S
Mg395       O397   2.340       .  S
Mg395       O424   2.268   1_545  S
O397        C401   1.279       .  A
O398       Mg405   2.387       .  S
O399        C418   1.264       .  A
O400        C420   1.281       .  A
O400       Mg416   2.367       .  S
O402       Mg416   2.168       .  S
O402        C413   1.238       .  S
O403       Mg422   2.156       .  S
O404       Mg416   2.305       .  S
Mg405       O421   2.295       .  S
O406       Mg422   2.193       .  S
H407        C412   1.081       .  S
O408       Mg416   2.161       .  S
O408        C411   1.242       .  S
H409        C411   1.081       .  S
H410        C413   1.081       .  S
O415       Mg422   2.295       .  S
C418        O423   1.255       .  A
C418        C668   1.426   1_655  S
O419        C420   1.264       .  A
C420        C677   1.478       .  S
O425       Mg427   2.179       .  S
O425       Mg433   2.150       .  S
O425        C460   1.238       .  S
C426        O439   1.233       .  S
C426        O463   1.267       .  A
C426        H465   1.081       .  S
Mg427       O456   2.168       .  S
Mg427       O471   2.317       .  S
Mg427       O467   2.284       .  S
Mg427       O438   2.289       .  S
O428       Mg470   2.165       .  S
O428       Mg453   2.163       .  S
O428        C449   1.239       .  S
O429        C460   1.276       .  A
O429       Mg453   2.328       .  S
C430        O432   1.282       .  A
C430        O444   1.270       .  A
C430        C682   1.501   1_655  S
O431        C459   1.273       .  A
O431       Mg433   2.306       .  S
O432       Mg464   2.360       .  S
Mg433       O439   2.135       .  S
Mg433       O447   2.212       .  S
Mg433       O435   2.294       .  S
C434        O472   1.260       .  A
C434        O440   1.275       .  A
C434        C649   1.425   1_655  S
O435        C442   1.270       .  A
H436        C449   1.081       .  S
C437        O451   1.239       .  S
C437        O452   1.274       .  A
C437        H462   1.081       .  S
O438        C461   1.265       .  A
O439       Mg453   2.130       .  S
O440       Mg470   2.314       .  S
C441        O454   1.278       .  A
C441        O446   1.282       .  A
C441        C661   1.489       .  S
C442        O469   1.277       .  A
C442        C658   1.492       .  S
Mg443       O450   2.122       .  S
Mg443       O451   2.159       .  S
Mg443       O444   2.271       .  S
Mg443       O445   2.303       .  S
Mg443       O472   2.205       .  S
O445        C449   1.273       .  A
O446       Mg453   2.352       .  S
O447        C466   1.260       .  A
O448        C468   1.287       .  A
O448       Mg464   2.384       .  S
O450       Mg464   2.151       .  S
O450        C461   1.231       .  S
O451       Mg470   2.178       .  S
O452       Mg464   2.316       .  S
Mg453       O469   2.336       .  S
O454       Mg470   2.306       .  S
H455        C460   1.081       .  S
O456       Mg464   2.168       .  S
O456        C459   1.239       .  S
H457        C459   1.081       .  S
H458        C461   1.081       .  S
O463       Mg470   2.299       .  S
C466        O471   1.274       .  A
C466        C652   1.431       .  S
O467        C468   1.277       .  A
C468        C653   1.494       .  S
C473        C726   1.496       .  S
C473        C474   1.418       .  A
C473        C478   1.416       .  A
C474        C741   1.497       .  S
C474        C475   1.415       .  A
C475        H480   1.084       .  S
C475        C476   1.413       .  A
C476        C670   1.490       .  S
C476        C477   1.415       .  A
C477        C654   1.495       .  S
C477        C478   1.402       .  A
C478        H479   1.084       .  S
C481        C773   1.490       .  S
C481        C482   1.416       .  A
C481        C486   1.412   1_455  A
C482        C814   1.488       .  S
C482        C483   1.403   1_455  A
C483        H488   1.085       .  S
C483        C484   1.404       .  A
C484        C678   1.483       .  S
C484        C485   1.418       .  A
C485        C662   1.497       .  S
C485        C486   1.411       .  A
C486        H487   1.084       .  S
C489        C818   1.499       .  S
C489        C490   1.419       .  A
C489        C494   1.412       .  A
C490        C762   1.497       .  S
C490        C491   1.417       .  A
C491        H496   1.085       .  S
C491        C492   1.411       .  A
C492        C657   1.495       .  S
C492        C493   1.414       .  A
C493        C706   1.495       .  S
C493        C494   1.416       .  A
C494        H495   1.084       .  S
C497        C777   1.492       .  S
C497        C498   1.414       .  A
C497        C502   1.414       .  A
C498        C758   1.490       .  S
C498        C499   1.406   1_565  A
C499        H504   1.085       .  S
C499        C500   1.409       .  A
C500        C673   1.493       .  S
C500        C501   1.420       .  A
C501        C702   1.495       .  S
C501        C502   1.415   1_545  A
C502        H503   1.084       .  S
O505       Mg507   2.132   1_566  S
O505       Mg513   2.141   1_556  S
O505        C540   1.238       .  S
C506        O519   1.231       .  S
C506        O543   1.265       .  A
C506        H545   1.081       .  S
Mg507       O536   2.173       .  S
Mg507       O551   2.329       .  S
Mg507       O547   2.276       .  S
Mg507       O518   2.294   1_554  S
O508       Mg550   2.186       .  S
O508       Mg533   2.139       .  S
O508        C529   1.234       .  S
O509        C540   1.273       .  A
O509       Mg533   2.314   1_455  S
C510        O512   1.266   1_655  A
C510        O524   1.260   1_554  A
C510        C709   1.416   1_554  S
O511        C539   1.268   1_565  A
O511       Mg513   2.287       .  S
O512       Mg544   2.251       .  S
Mg513       O519   2.115   1_455  S
Mg513       O527   2.177       .  S
Mg513       O515   2.244   1_554  S
C514        O552   1.260       .  A
C514        O520   1.279   1_545  A
C514        C734   1.434       .  S
O515        C522   1.258       .  A
H516        C529   1.081       .  S
C517        O531   1.236       .  S
C517        O532   1.269       .  A
C517        H542   1.081       .  S
O518        C541   1.266       .  A
O519       Mg533   2.124   1_554  S
O520       Mg550   2.338       .  S
C521        O534   1.274       .  A
C521        O526   1.267       .  A
C521        C723   1.416       .  S
C522        O549   1.266   1_455  A
C522        C711   1.424       .  S
Mg523       O530   2.123   1_655  S
Mg523       O531   2.153   1_556  S
Mg523       O524   2.230       .  S
Mg523       O525   2.284       .  S
Mg523       O552   2.195       .  S
O525        C529   1.266   1_545  A
O526       Mg533   2.241       .  S
O527        C546   1.258   1_565  A
O528        C548   1.267       .  A
O528       Mg544   2.249       .  S
O530       Mg544   2.150   1_556  S
O530        C541   1.232       .  S
O531       Mg550   2.125   1_544  S
O532       Mg544   2.295   1_655  S
Mg533       O549   2.280       .  S
O534       Mg550   2.264       .  S
H535        C540   1.082   1_545  S
O536       Mg544   2.131       .  S
O536        C539   1.235       .  S
H537        C539   1.082       .  S
H538        C541   1.081       .  S
O543       Mg550   2.294   1_554  S
C546        O551   1.277       .  A
C546        C736   1.424       .  S
O547        C548   1.274       .  A
C548        C721   1.423       .  S
O553       Mg555   2.116       .  S
O553       Mg561   2.162       .  S
O553        C588   1.233       .  S
C554        O567   1.235       .  S
C554        O591   1.266       .  A
C554        H593   1.081       .  S
Mg555       O584   2.151       .  S
Mg555       O599   2.207       .  S
Mg555       O595   2.203       .  S
Mg555       O566   2.290       .  S
O556       Mg598   2.164       .  S
O556       Mg581   2.122       .  S
O556        C577   1.238       .  S
O557        C588   1.265       .  A
O557       Mg581   2.287       .  S
C558        O560   1.272       .  A
C558        O572   1.276       .  A
C558        C756   1.428       .  S
O559        C587   1.270       .  A
O559       Mg561   2.298       .  S
O560       Mg592   2.253       .  S
Mg561       O567   2.101       .  S
Mg561       O575   2.274       .  S
Mg561       O563   2.306       .  S
C562        O600   1.270       .  A
C562        O568   1.257       .  A
C562        C809   1.412       .  S
O563        C570   1.277       .  A
H564        C577   1.081       .  S
C565        O579   1.231       .  S
C565        O580   1.264       .  A
C565        H590   1.081       .  S
O566        C589   1.270       .  A
O567       Mg581   2.151       .  S
O568       Mg598   2.185       .  S
C569        O582   1.261       .  A
C569        O574   1.272       .  A
C569        C770   1.418       .  S
C570        O597   1.272       .  A
C570        C754   1.429       .  S
Mg571       O578   2.117       .  S
Mg571       O579   2.158       .  S
Mg571       O572   2.307       .  S
Mg571       O573   2.298       .  S
Mg571       O600   2.276       .  S
O573        C577   1.271       .  A
O574       Mg581   2.285       .  S
O575        C594   1.270       .  A
O576        C596   1.272       .  A
O576       Mg592   2.292       .  S
O578       Mg592   2.156       .  S
O578        C589   1.237       .  S
O579       Mg598   2.109       .  S
O580       Mg592   2.284       .  S
Mg581       O597   2.253       .  S
O582       Mg598   2.211       .  S
H583        C588   1.081       .  S
O584       Mg592   2.125       .  S
O584        C587   1.237       .  S
H585        C587   1.081       .  S
H586        C589   1.081       .  S
O591       Mg598   2.273       .  S
C594        O599   1.258       .  A
C594        C812   1.419       .  S
O595        C596   1.260       .  A
C596        C771   1.419       .  S
O601       Mg603   2.124       .  S
O601       Mg609   2.176       .  S
O601        C636   1.238       .  S
C602        O615   1.241       .  S
C602        O639   1.276       .  A
C602        H641   1.081       .  S
Mg603       O632   2.135       .  S
Mg603       O647   2.276       .  S
Mg603       O643   2.269       .  S
Mg603       O614   2.330       .  S
O604       Mg646   2.141       .  S
O604       Mg629   2.125       .  S
O604        C625   1.230       .  S
O605        C636   1.271       .  A
O605       Mg629   2.292       .  S
C606        O608   1.260       .  A
C606        O620   1.277       .  A
C606        C651   1.429       .  S
O607        C635   1.264       .  A
O607       Mg609   2.291       .  S
O608       Mg640   2.194       .  S
Mg609       O615   2.119       .  S
Mg609       O623   2.266       .  S
Mg609       O611   2.329       .  S
C610        O648   1.275       .  A
C610        O616   1.268       .  A
C610        C690   1.423       .  S
O611        C618   1.277       .  A
H612        C625   1.081       .  S
C613        O627   1.238       .  S
C613        O628   1.272       .  A
C613        H638   1.081       .  S
O614        C637   1.278       .  A
O615       Mg629   2.122       .  S
O616       Mg646   2.261       .  S
C617        O630   1.263       .  A
C617        O622   1.252       .  A
C617        C667   1.425       .  S
C618        O645   1.259       .  A
C618        C650   1.423       .  S
Mg619       O626   2.132       .  S
Mg619       O627   2.184       .  S
Mg619       O620   2.336       .  S
Mg619       O621   2.289       .  S
Mg619       O648   2.267       .  S
O621        C625   1.263       .  A
O622       Mg629   2.225       .  S
O623        C642   1.275       .  A
O624        C644   1.254       .  A
O624       Mg640   2.238       .  S
O626       Mg640   2.122       .  S
O626        C637   1.242       .  S
O627       Mg646   2.141       .  S
O628       Mg640   2.299       .  S
Mg629       O645   2.184       .  S
O630       Mg646   2.294       .  S
H631        C636   1.081       .  S
O632       Mg640   2.128       .  S
O632        C635   1.231       .  S
H633        C635   1.081       .  S
H634        C637   1.081       .  S
O639       Mg646   2.323       .  S
C642        O647   1.269       .  A
C642        C692   1.427       .  S
O643        C644   1.262       .  A
C644        C665   1.419       .  S
C649        C650   1.200       .  T
C651        C652   1.204       .  T
C653        C654   1.354       .  D
C653        H655   1.086       .  S
C654        H656   1.086       .  S
C657        C658   1.353       .  D
C657        H659   1.087       .  S
C658        H660   1.086       .  S
C661        C662   1.350       .  D
C661        H663   1.086       .  S
C662        H664   1.086       .  S
C665        C666   1.197       .  T
C667        C668   1.201       .  T
C669        C670   1.356       .  D
C669        H671   1.086       .  S
C670        H672   1.088       .  S
C673        C674   1.343       .  D
C673        H675   1.087       .  S
C674        H676   1.087       .  S
C677        C678   1.354       .  D
C677        H679   1.086       .  S
C678        H680   1.087       .  S
C681        C682   1.361       .  D
C681        H683   1.087       .  S
C682        H684   1.086       .  S
C685        C686   1.351       .  D
C685        H687   1.087       .  S
C686        H688   1.087       .  S
C689        C690   1.198       .  T
C691        C692   1.201       .  T
C693        C694   1.349       .  D
C693        H695   1.086       .  S
C694        H696   1.086       .  S
C697        C698   1.349       .  D
C697        H699   1.087       .  S
C698        H700   1.086       .  S
C701        C702   1.355       .  D
C701        H703   1.086       .  S
C702        H704   1.086       .  S
C705        C706   1.361       .  D
C705        H707   1.086       .  S
C706        H708   1.087       .  S
C709        C710   1.196       .  T
C711        C712   1.201   1_556  T
C713        C714   1.357       .  D
C713        H715   1.086       .  S
C714        H716   1.087       .  S
C717        C718   1.349       .  D
C717        H719   1.086       .  S
C718        H720   1.087       .  S
C721        C722   1.200       .  T
C723        C724   1.196       .  T
C725        C726   1.348       .  D
C725        H727   1.087       .  S
C726        H728   1.085       .  S
C729        C730   1.347       .  D
C729        H731   1.087       .  S
C730        H732   1.086       .  S
C733        C734   1.208       .  T
C735        C736   1.202   1_565  T
C737        C738   1.356       .  D
C737        H739   1.086       .  S
C738        H740   1.086       .  S
C741        C742   1.364       .  D
C741        H743   1.087       .  S
C742        H744   1.086       .  S
C745        C746   1.353       .  D
C745        H747   1.087       .  S
C746        H748   1.086       .  S
C749        C750   1.352       .  D
C749        H751   1.087       .  S
C750        H752   1.087       .  S
C753        C754   1.202       .  T
C755        C756   1.201       .  T
C757        C758   1.356       .  D
C757        H759   1.086       .  S
C758        H760   1.086       .  S
C761        C762   1.358       .  D
C761        H763   1.086       .  S
C762        H764   1.087       .  S
C765        C766   1.349       .  D
C765        H767   1.086       .  S
C766        H768   1.087       .  S
C769        C770   1.196       .  T
C771        C772   1.197       .  T
C773        C774   1.347       .  D
C773        H775   1.086       .  S
C774        H776   1.087       .  S
C777        C778   1.351       .  D
C777        H779   1.087       .  S
C778        H780   1.086       .  S
C781        C782   1.357       .  D
C781        H783   1.086       .  S
C782        H784   1.086       .  S
C785        C786   1.360       .  D
C785        H787   1.086       .  S
C786        H788   1.086       .  S
C789        C790   1.352       .  D
C789        H791   1.086       .  S
C790        H792   1.086       .  S
C793        C794   1.348       .  D
C793        H795   1.086       .  S
C794        H796   1.087       .  S
C797        C798   1.347       .  D
C797        H799   1.086       .  S
C798        H800   1.087       .  S
C801        C802   1.358       .  D
C801        H803   1.086       .  S
C802        H804   1.086       .  S
C805        C806   1.354       .  D
C805        H807   1.086       .  S
C806        H808   1.086       .  S
C809        C810   1.195       .  T
C811        C812   1.198       .  T
C813        C814   1.353       .  D
C813        H815   1.086       .  S
C814        H816   1.087       .  S
C817        C818   1.358       .  D
C817        H819   1.086       .  S
C818        H820   1.086       .  S
C821        C822   1.357       .  D
C821        H823   1.086       .  S
C822        H824   1.086       .  S
C825        C826   1.358       .  D
C825        H827   1.086       .  S
C826        H828   1.087       .  S
