geometry optimzed in LAMMPS
_audit_creation_date              2020-11-30 
_audit_creation_method            'lammps2cif' 
_symmetry_space_group_name_H-M    'P1' 
_symmetry_Int_Tables_number       1 
_symmetry_cell_setting            triclinic 
loop_ 
_symmetry_equiv_pos_as_xyz 
  x,y,z 
_cell_length_a                    26.6515569 
_cell_length_b                    26.44429767167015 
_cell_length_c                    36.39764918342919 
_cell_angle_alpha                 89.98645405885199 
_cell_angle_beta                  89.90687292431032 
_cell_angle_gamma                 90.03195072747636 
loop_ 
_atom_site_label 
_atom_site_type_symbol 
_atom_site_fract_x 
_atom_site_fract_y 
_atom_site_fract_z 
_atom_site_charge 
C1          C  0.71494531  0.72950343  0.99599389     0.02800
C2          C  0.69354926  0.71824987  0.46117939    -0.13300
C3          C  0.65565344  0.68145996  0.45978967     0.00300
C4          C  0.63833403  0.65975510  0.49243710    -0.11900
C5          C  0.65988142  0.66963592  0.02775319     0.02800
C6          C  0.69930355  0.70465890  0.02842035    -0.11300
H7          H  0.70260353  0.73846858  0.43623216     0.08400
H8          H  0.60775471  0.63269873  0.49174171     0.05900
H9          H  0.71670407  0.71296605  0.05454955     0.05800
C10         C  0.20743158  0.73254962  0.99507668     0.02800
C11         C  0.22559707  0.71282506  0.46135639    -0.13300
C12         C  0.26243208  0.67494744  0.46095543     0.00300
C13         C  0.28366582  0.65843583  0.49394388    -0.11900
C14         C  0.26629434  0.67764642  0.02757875     0.02800
C15         C  0.22979730  0.71577266  0.02800776    -0.11300
H16         H  0.20825484  0.72378612  0.43569051     0.08400
H17         H  0.31187024  0.62889681  0.49362996     0.05900
H18         H  0.21942004  0.73255407  0.05407429     0.05800
C19         C  0.71828852  0.23094307  0.99687045     0.02800
C20         C  0.69581280  0.24681155  0.46210345    -0.13300
C21         C  0.65798509  0.28372967  0.46216066     0.00300
C22         C  0.63888136  0.30149027  0.49549903    -0.11900
C23         C  0.66068412  0.28853440  0.02818645     0.02800
C24         C  0.69664204  0.24991691  0.02942486    -0.11300
H25         H  0.71159567  0.23469997  0.43611779     0.08400
H26         H  0.61054682  0.33091201  0.49547561     0.05900
H27         H  0.70709640  0.23447578  0.05587543     0.05800
N28         N  0.96106862  0.90138278  0.00410294    -0.36900
N29         N  0.88267533  0.97815540  0.00311827    -0.57500
N30         N  0.95986524  0.05707220  0.00111427    -0.36900
N31         N  0.03812200  0.98034273  0.99865099    -0.57500
C32         C  0.92028967  0.87126101  0.99991498     0.26700
C33         C  0.00225560  0.87265702  0.99775801     0.26700
C34         C  0.91820806  0.08540341  0.99552318     0.26700
C35         C  0.00028560  0.08691970  0.99442278     0.26700
C36         C  0.85310602  0.93695713  0.00747390     0.35300
C37         C  0.85258212  0.01910203  0.00648676     0.35300
C38         C  0.06836202  0.93965386  0.00287408     0.35300
C39         C  0.06788718  0.02171489  0.00109229     0.35300
C40         C  0.93619881  0.82241679  0.99200712    -0.22200
C41         C  0.98754688  0.82352980  0.99007170    -0.22200
C42         C  0.93241121  0.13385559  0.98530059    -0.22200
C43         C  0.98382181  0.13510088  0.98528301    -0.22200
C44         C  0.80378250  0.95204358  0.01296135    -0.23300
C45         C  0.80367639  0.00381429  0.01317026    -0.23300
C46         C  0.11757218  0.95527241  0.00758186    -0.23300
C47         C  0.11741726  0.00694955  0.00578849    -0.23300
C48         C  0.86921368  0.88597335  0.00411601    -0.18600
C49         C  0.05300448  0.88841434  0.00070915    -0.18600
C50         C  0.05152226  0.07268264  0.99809045    -0.18600
C51         C  0.86764232  0.07000938  0.00105353    -0.18600
H52         H  0.91363224  0.78884678  0.98830180     0.14300
H53         H  0.01133552  0.79136711  0.98421752     0.14300
H54         H  0.90831989  0.16559610  0.97898108     0.14300
H55         H  0.00598631  0.16836197  0.97946304     0.14300
H56         H  0.77080445  0.92857407  0.01589174     0.12600
H57         H  0.77086886  0.02738342  0.01678766     0.12600
H58         H  0.15048023  0.93196011  0.01151177     0.12600
H59         H  0.15038127  0.03064644  0.00762842     0.12600
H60         H  0.96111633  0.93792010  0.01427076     0.25800
H61         H  0.96069119  0.02135812  0.01272569     0.25800
C62         C  0.21073735  0.22541035  0.99480681     0.02800
C63         C  0.23445339  0.24085025  0.46249023    -0.13300
C64         C  0.27394566  0.27579325  0.46159749     0.00300
C65         C  0.29240024  0.29594547  0.49429585    -0.11900
C66         C  0.26979356  0.28035181  0.02756738     0.02800
C67         C  0.22854820  0.24739337  0.02775479    -0.11300
H68         H  0.22438318  0.22266188  0.43701333     0.08400
H69         H  0.32352099  0.32237722  0.49366496     0.05900
H70         H  0.21084968  0.23919127  0.05383888     0.05800
N71         N  0.51650413  0.57693160  0.28667821    -0.06400
N72         N  0.52233179  0.61014243  0.31335733    -0.58600
N73         N  0.55413549  0.54089540  0.20330213    -0.06100
N74         N  0.58629640  0.54854065  0.17629563    -0.60700
N75         N  0.51818863  0.57488650  0.20244994    -0.05700
N76         N  0.52502159  0.60624375  0.17473403    -0.58500
N77         N  0.55251942  0.54296605  0.28746898    -0.05400
N78         N  0.58382714  0.55267121  0.31467298    -0.61000
C79         C  0.56426583  0.59447435  0.33076747     0.95700
C80         C  0.56755755  0.58933090  0.15860364     0.95500
N81         N  0.52196791  0.38665504  0.20350338    -0.06600
N82         N  0.52927249  0.35518949  0.17590662    -0.59100
N83         N  0.55506434  0.42340450  0.28832431    -0.04700
N84         N  0.58651708  0.41727355  0.31591512    -0.60400
N85         N  0.52126572  0.38714752  0.28810943    -0.06700
N86         N  0.52917285  0.35557763  0.31564584    -0.59400
N87         N  0.55667379  0.42202924  0.20376377    -0.04400
N88         N  0.58843189  0.41519562  0.17629053    -0.60500
Mn89       Mn  0.55630262  0.48231049  0.24580832     1.18400
C90         C  0.57070986  0.37346809  0.15901752     0.97800
C91         C  0.56991227  0.37495315  0.33292310     0.98500
N92         N  0.40039885  0.57281782  0.20149967    -0.06700
N93         N  0.39320636  0.60443858  0.17399520    -0.63000
N94         N  0.36473499  0.53869723  0.28625034    -0.05500
N95         N  0.33239153  0.54648301  0.31317449    -0.63700
N96         N  0.39891116  0.57456296  0.28581166    -0.06200
N97         N  0.39058274  0.60740995  0.31239722    -0.63200
N98         N  0.36564328  0.53752297  0.20171834    -0.05100
N99         N  0.33394946  0.54451313  0.17431551    -0.63900
Mn100      Mn  0.45848120  0.57628866  0.24405344     1.10700
C101        C  0.35156018  0.58650215  0.15728709     0.99000
C102        C  0.34888047  0.58960663  0.32923758     0.99100
N103        N  0.40319037  0.38471903  0.28698958    -0.06200
N104        N  0.39636177  0.35221410  0.31400187    -0.61600
N105        N  0.36797570  0.41883859  0.20270722    -0.05500
N106        N  0.33606828  0.41085246  0.17568689    -0.58300
N107        N  0.40349163  0.38432346  0.20261264    -0.06800
N108        N  0.39629532  0.35207445  0.17539290    -0.61100
N109        N  0.36733338  0.41886815  0.28684755    -0.05800
N110        N  0.33519824  0.41000634  0.31372503    -0.58300
Mn111      Mn  0.46255306  0.38402491  0.24526654     1.20200
Mn112      Mn  0.36476625  0.47842748  0.24448734     1.09500
Cl113      Cl  0.46051621  0.48022864  0.24495044    -0.86300
C114        C  0.35377602  0.36831255  0.33049140     0.96000
C115        C  0.35393256  0.36900786  0.15886645     0.95800
C116        C  0.35819567  0.30910483  0.10629711    -0.26600
C117        C  0.33050561  0.34502355  0.12624128    -0.14700
C118        C  0.28147917  0.35777769  0.11435074     0.35900
C119        C  0.26213280  0.33539296  0.08235588    -0.26100
C120        C  0.29047321  0.30065558  0.06212727    -0.15300
C121        C  0.33882495  0.28697278  0.07424764     0.37000
N122        N  0.36765544  0.24996383  0.05439555    -0.89600
H123        H  0.39553864  0.29885286  0.11533030     0.18100
H124        H  0.22494867  0.34548606  0.07283141     0.18100
N125        N  0.25137034  0.39322539  0.13463598    -0.88600
H126        H  0.40129765  0.24231787  0.06804624     0.35500
H127        H  0.37772004  0.26572714  0.02911673     0.40600
H128        H  0.24282212  0.37662200  0.15995891     0.40200
H129        H  0.21709484  0.39947012  0.12145296     0.35100
C130        C  0.36158046  0.30993166  0.38361955    -0.26600
C131        C  0.33155087  0.34346206  0.36320352    -0.14700
C132        C  0.28130444  0.35189072  0.37424675     0.35900
C133        C  0.26264801  0.32692794  0.40547189    -0.26100
C134        C  0.29333883  0.29501823  0.42634451    -0.15300
C135        C  0.34306554  0.28596510  0.41527854     0.37000
N136        N  0.37457975  0.25298050  0.43651776    -0.89600
H137        H  0.40002883  0.30308224  0.37530169     0.18100
H138        H  0.22449660  0.33392844  0.41449843     0.18100
N139        N  0.24926629  0.38546096  0.35392356    -0.88600
H140        H  0.41033067  0.25052075  0.42478110     0.35500
H141        H  0.35901504  0.21671770  0.43531597     0.40600
H142        H  0.26186721  0.42230870  0.35873890     0.40200
H143        H  0.21257655  0.38405147  0.36409683     0.35100
C144        C  0.09922857  0.14432881  0.46724270    -0.26600
C145        C  0.09066847  0.11343153  0.99842871    -0.14700
C146        C  0.12075246  0.12309423  0.02970268     0.35900
C147        C  0.16049761  0.15766446  0.02714896    -0.26100
C148        C  0.16828512  0.18762916  0.99553792    -0.15300
C149        C  0.13429749  0.18385313  0.46632271     0.37000
N150        N  0.13501813  0.21655005  0.43495366    -0.89600
H151        H  0.07733950  0.13636616  0.44283849     0.18100
H152        H  0.18508772  0.16094066  0.05062026     0.18100
N153        N  0.11198420  0.09903126  0.06459381    -0.88600
H154        H  0.09941861  0.23270943  0.43220597     0.35500
H155        H  0.14183378  0.19450098  0.41162495     0.40600
H156        H  0.07973128  0.07666610  0.06443146     0.40200
H157        H  0.14246795  0.07537441  0.07011589     0.35100
C158        C  0.75383520  0.14883002  0.46847428    -0.26600
C159        C  0.75711559  0.19009984  0.99839143    -0.14700
C160        C  0.79560687  0.18972780  0.02528912     0.35900
C161        C  0.82949738  0.14899570  0.02664509    -0.26100
C162        C  0.82810025  0.11018219  0.00039830    -0.15300
C163        C  0.79111588  0.11135510  0.46767093     0.37000
N164        N  0.79161708  0.07480493  0.43864070    -0.89600
H165        H  0.72464608  0.14789822  0.44781505     0.18100
H166        H  0.85848807  0.14835091  0.04748729     0.18100
N167        N  0.80131422  0.23132226  0.05038288    -0.88600
H168        H  0.75728113  0.05566471  0.43895145     0.35500
H169        H  0.79443406  0.09421160  0.41369287     0.40600
H170        H  0.81033140  0.26337527  0.03489512     0.40200
H171        H  0.83140320  0.22510589  0.06822103     0.35100
C172        C  0.58853703  0.30030049  0.06991870    -0.26600
C173        C  0.63926346  0.30964562  0.06233288    -0.14700
C174        C  0.66752658  0.34038379  0.08652587     0.35900
C175        C  0.64423153  0.36052581  0.11782136    -0.26100
C176        C  0.59342608  0.35111161  0.12555085    -0.15300
C177        C  0.56513327  0.32088793  0.10109980     0.37000
N178        N  0.51257209  0.31206170  0.10743908    -0.89600
H179        H  0.56694040  0.27724473  0.05105885     0.18100
H180        H  0.66615221  0.38397473  0.13620521     0.18100
N181        N  0.71909306  0.35356585  0.07971381    -0.88600
H182        H  0.49765108  0.28841869  0.08718117     0.35500
H183        H  0.49412334  0.34676791  0.10485169     0.40600
H184        H  0.73212335  0.33933305  0.05475019     0.40200
H185        H  0.74075176  0.33703419  0.10040241     0.35100
C186        C  0.65115253  0.35407882  0.41782578    -0.26600
C187        C  0.63785173  0.30458769  0.42755676    -0.14700
C188        C  0.60230449  0.27809555  0.40606675     0.35900
C189        C  0.58126129  0.30184421  0.37530000    -0.26100
C190        C  0.59413641  0.35163478  0.36556382    -0.15300
C191        C  0.62947037  0.37815340  0.38729619     0.37000
N192        N  0.64240233  0.42972091  0.37902287    -0.89600
H193        H  0.67769810  0.37448719  0.43481373     0.18100
H194        H  0.55404615  0.28114933  0.35910328     0.18100
N195        N  0.58513733  0.22806783  0.41526294    -0.88600
H196        H  0.66978568  0.44305475  0.39714609     0.35500
H197        H  0.61042846  0.45175666  0.38359940     0.40600
H198        H  0.60160824  0.21446508  0.43927900     0.40200
H199        H  0.59623170  0.20384165  0.39406476     0.35100
C200        C  0.13318659  0.77353043  0.02503299    -0.26600
C201        C  0.16808733  0.77290528  0.99596268    -0.14700
C202        C  0.17003524  0.81547463  0.46876538     0.35900
C203        C  0.13158818  0.85188573  0.47040680    -0.26100
C204        C  0.09277540  0.84852406  0.00020419    -0.15300
C205        C  0.09685009  0.81150333  0.02817122     0.37000
N206        N  0.06573231  0.81169537  0.06049822    -0.89600
H207        H  0.13431069  0.74447014  0.04598813     0.18100
H208        H  0.12944907  0.88090962  0.44944003     0.18100
N209        N  0.20786447  0.81896058  0.44067045    -0.88600
H210        H  0.04227876  0.78004056  0.05925250     0.35500
H211        H  0.04287001  0.84362564  0.06190014     0.40600
H212        H  0.24212705  0.82601389  0.45365022     0.40200
H213        H  0.19531208  0.84542406  0.92302374     0.35100
C214        C  0.25769834  0.62730968  0.08429242    -0.26600
C215        C  0.28783400  0.65819908  0.06206139    -0.14700
C216        C  0.33860445  0.66636617  0.07161859     0.35900
C217        C  0.35802259  0.64274815  0.10291555    -0.26100
C218        C  0.32829183  0.61086215  0.12486695    -0.15300
C219        C  0.27730311  0.60348832  0.11565475     0.37000
N220        N  0.24552946  0.57217898  0.13809611    -0.89600
H221        H  0.21886619  0.62108781  0.07670552     0.18100
H222        H  0.39704382  0.64907425  0.10987051     0.18100
N223        N  0.37130765  0.69879477  0.05073064    -0.88600
H224        H  0.20945723  0.56992745  0.12695680     0.35500
H225        H  0.24176727  0.58998930  0.16359584     0.40600
H226        H  0.35256229  0.71676534  0.02924834     0.40200
H227        H  0.39916530  0.67612839  0.03897294     0.35100
C228        C  0.31332164  0.68300415  0.40463827    -0.26600
C229        C  0.28060805  0.65362228  0.42594234    -0.14700
C230        C  0.26917694  0.60368613  0.41484564     0.35900
C231        C  0.29125313  0.58432865  0.38287219    -0.26100
C232        C  0.32499163  0.61320093  0.36184200    -0.15300
C233        C  0.33571125  0.66346459  0.37268174     0.37000
N234        N  0.36922806  0.69453576  0.35144105    -0.89600
H235        H  0.32209000  0.72116399  0.41342595     0.18100
H236        H  0.28246546  0.54588435  0.37481127     0.18100
N237        N  0.23518061  0.57171533  0.43496585    -0.88600
H238        H  0.37412308  0.72982682  0.36388551     0.35500
H239        H  0.35204823  0.70138171  0.32612022     0.40600
H240        H  0.21912770  0.59041174  0.45731092     0.40200
H241        H  0.25593223  0.54148439  0.44550749     0.35100
C242        C  0.76132124  0.79822199  0.02976568    -0.26600
C243        C  0.75533045  0.76917791  0.99750627    -0.14700
C244        C  0.79306447  0.77623143  0.46579139     0.35900
C245        C  0.82709581  0.81681430  0.46685081    -0.26100
C246        C  0.82990621  0.84568847  0.00248248    -0.15300
C247        C  0.79966183  0.83421627  0.03303088     0.37000
N248        N  0.80772444  0.85921626  0.06744467    -0.89600
H249        H  0.73641112  0.79326306  0.05296879     0.18100
H250        H  0.85022292  0.82485713  0.44303629     0.18100
N251        N  0.79371802  0.74239516  0.43490048    -0.88600
H252        H  0.77907663  0.87866708  0.57123525     0.35500
H253        H  0.81547585  0.83160350  0.08719914     0.40600
H254        H  0.80032957  0.70956814  0.94518216     0.40200
H255        H  0.81651689  0.75727421  0.91721015     0.35100
C256        C  0.58661669  0.65881094  0.06845853    -0.26600
C257        C  0.63775801  0.65014981  0.06207350    -0.14700
C258        C  0.66615615  0.62264599  0.08776799     0.35900
C259        C  0.64242748  0.60382917  0.11941384    -0.26100
C260        C  0.59103463  0.61219686  0.12578955    -0.15300
C261        C  0.56286839  0.64045004  0.10011616     0.37000
N262        N  0.51005439  0.64895381  0.10541081    -0.89600
H263        H  0.56513400  0.68023584  0.04855158     0.18100
H264        H  0.66412673  0.58225992  0.13908483     0.18100
N265        N  0.71853564  0.61316976  0.08127393    -0.88600
H266        H  0.49433809  0.66621185  0.08228063     0.35500
H267        H  0.50615478  0.67496126  0.12684273     0.40600
H268        H  0.72135579  0.59052078  0.05781906     0.40200
H269        H  0.73398234  0.59239844  0.10292396     0.35100
C270        C  0.58151642  0.66785474  0.41977952    -0.26600
C271        C  0.63364509  0.66479295  0.42447294    -0.14700
C272        C  0.66304562  0.64007857  0.39763273     0.35900
C273        C  0.63940795  0.61818611  0.36701486    -0.26100
C274        C  0.58715783  0.62064161  0.36254814    -0.15300
C275        C  0.55801348  0.64626542  0.38926398     0.37000
N276        N  0.50438172  0.64880772  0.38731250    -0.89600
H277        H  0.55869598  0.68603369  0.44062083     0.18100
H278        H  0.66191321  0.59863685  0.34667295     0.18100
N279        N  0.71628436  0.63466146  0.40257802    -0.88600
H280        H  0.49010718  0.61206277  0.38542734     0.35500
H281        H  0.49422960  0.66920268  0.36390079     0.40600
H282        H  0.73241993  0.67032693  0.39908439     0.40200
H283        H  0.73156356  0.61183870  0.38194885     0.35100
C284        C  0.71840680  0.72950394  0.49447199     0.02800
C285        C  0.69059884  0.71684117  0.96273039    -0.13300
C286        C  0.65477513  0.67803995  0.96170710     0.00300
C287        C  0.63880660  0.65545698  0.99426242    -0.11900
C288        C  0.66034044  0.67222999  0.52601137     0.02800
C289        C  0.70155626  0.70523657  0.52683667    -0.11300
H290        H  0.69921818  0.73643916  0.93744427     0.08400
H291        H  0.60966319  0.62682294  0.99353657     0.05900
H292        H  0.71942837  0.71250980  0.55297244     0.05800
C293        C  0.21080624  0.73569120  0.49465339     0.02800
C294        C  0.22251744  0.70995761  0.96172971    -0.13300
C295        C  0.26034349  0.67313726  0.96128028     0.00300
C296        C  0.28170083  0.65678029  0.99418749    -0.11900
C297        C  0.26875761  0.67983366  0.52732674     0.02800
C298        C  0.23279708  0.71854905  0.52763856    -0.11300
H299        H  0.20495593  0.72052376  0.93606531     0.08400
H300        H  0.31051121  0.62783605  0.99380298     0.05900
H301        H  0.22246964  0.73550609  0.55365719     0.05800
C302        C  0.71340207  0.22610074  0.49542118     0.02800
C303        C  0.70128608  0.25005128  0.96281427    -0.13300
C304        C  0.66358358  0.28714434  0.96154434     0.00300
C305        C  0.64397349  0.30656166  0.99426069    -0.11900
C306        C  0.65592721  0.28165667  0.52883503     0.02800
C307        C  0.69170473  0.24274387  0.52865163    -0.11300
H308        H  0.71711227  0.23622964  0.93729971     0.08400
H309        H  0.61537902  0.33569275  0.99330718     0.05900
H310        H  0.70275943  0.22594216  0.55453351     0.05800
N311        N  0.96400252  0.90338508  0.50050287    -0.36900
N312        N  0.88443327  0.97880798  0.49752976    -0.57500
N313        N  0.96019873  0.05876876  0.49864440    -0.36900
N314        N  0.03980431  0.98328975  0.49862239    -0.57500
C315        C  0.92387617  0.87278938  0.49500807     0.26700
C316        C  0.00587219  0.87554993  0.49433653     0.26700
C317        C  0.91858104  0.08644462  0.49144634     0.26700
C318        C  0.00050969  0.08917996  0.49328021     0.26700
C319        C  0.85555612  0.93719281  0.50229201     0.35300
C320        C  0.85366753  0.01928087  0.50077856     0.35300
C321        C  0.07050691  0.94301977  0.50313825     0.35300
C322        C  0.06854554  0.02509447  0.50277604     0.35300
C323        C  0.94085115  0.82460690  0.48618238    -0.22200
C324        C  0.99222995  0.82663208  0.48513119    -0.22200
C325        C  0.93262812  0.13502887  0.48151415    -0.22200
C326        C  0.98395439  0.13704760  0.48329974    -0.22200
C327        C  0.80599692  0.95153292  0.50771445    -0.23300
C328        C  0.80500869  0.00329488  0.50748173    -0.23300
C329        C  0.11902683  0.95930403  0.50989876    -0.23300
C330        C  0.11795278  0.01107387  0.50915672    -0.23300
C331        C  0.87253875  0.88643715  0.49940539    -0.18600
C332        C  0.05620737  0.89171003  0.49921823    -0.18600
C333        C  0.05158266  0.07573516  0.49894747    -0.18600
C334        C  0.86808283  0.07041128  0.49574316    -0.18600
H335        H  0.91906966  0.79078215  0.48144533     0.14300
H336        H  0.01675432  0.79509666  0.47909639     0.14300
H337        H  0.90841447  0.16634902  0.47436870     0.14300
H338        H  0.00598363  0.17063124  0.47820256     0.14300
H339        H  0.77344676  0.92753926  0.51095430     0.12600
H340        H  0.77186716  0.02638796  0.51109372     0.12600
H341        H  0.15207779  0.93636890  0.51434084     0.12600
H342        H  0.15029009  0.03532933  0.51248818     0.12600
H343        H  0.96297523  0.93929005  0.51182035     0.25800
H344        H  0.96083034  0.02322979  0.51056619     0.25800
C345        C  0.20940847  0.22933063  0.49571796     0.02800
C346        C  0.23495966  0.23903052  0.96162158    -0.13300
C347        C  0.27331116  0.27544012  0.96118104     0.00300
C348        C  0.29087368  0.29539713  0.99424128    -0.11900
C349        C  0.26996455  0.28345866  0.52772774     0.02800
C350        C  0.22738017  0.25223605  0.52829955    -0.11300
H351        H  0.22505128  0.22130975  0.93591458     0.08400
H352        H  0.32062171  0.32339678  0.99404001     0.05900
H353        H  0.20893557  0.24595705  0.55438529     0.05800
N354        N  0.51993621  0.57704645  0.78600067    -0.06400
N355        N  0.52627660  0.60957517  0.81301581    -0.58600
N356        N  0.55518740  0.54080818  0.70177763    -0.06100
N357        N  0.58642576  0.54791840  0.67406270    -0.60700
N358        N  0.51986876  0.57552560  0.70164141    -0.05700
N359        N  0.52626510  0.60673886  0.67373346    -0.58500
N360        N  0.55541175  0.54255356  0.78638334    -0.05400
N361        N  0.58660477  0.55100856  0.81385919    -0.61000
C362        C  0.56803103  0.59311615  0.83023384     0.95700
C363        C  0.56789821  0.58915249  0.65667561     0.95500
N364        N  0.52132706  0.38633868  0.70355845    -0.06600
N365        N  0.52771903  0.35393787  0.67644118    -0.59100
N366        N  0.55670145  0.42354895  0.78751143    -0.04700
N367        N  0.58870066  0.41757592  0.81476879    -0.60400
N368        N  0.52225818  0.38791644  0.78824866    -0.06700
N369        N  0.53032705  0.35694161  0.81616774    -0.59400
N370        N  0.55649179  0.42124186  0.70299626    -0.04400
N371        N  0.58788482  0.41299688  0.67549919    -0.60500
Mn372      Mn  0.55772386  0.48206306  0.74462129     1.18400
C373        C  0.56921410  0.37103639  0.65907695     0.97800
C374        C  0.57188770  0.37603158  0.83263911     0.98500
N375        N  0.40227121  0.57550685  0.70229906    -0.06700
N376        N  0.39513193  0.60752155  0.67499072    -0.63000
N377        N  0.36761510  0.54020423  0.78711904    -0.05500
N378        N  0.33595200  0.54709393  0.81454968    -0.63700
N379        N  0.40214661  0.57573113  0.78696807    -0.06200
N380        N  0.39462567  0.60750977  0.81441696    -0.63200
N381        N  0.36732664  0.54041512  0.70246000    -0.05100
N382        N  0.33553640  0.54799450  0.67518730    -0.63900
Mn383      Mn  0.46108375  0.57754610  0.74423756     1.10700
C384        C  0.35325108  0.59009853  0.65829898     0.99000
C385        C  0.35307207  0.58931048  0.83138958     0.99100
N386        N  0.40386584  0.38666651  0.78775583    -0.06200
N387        N  0.39680213  0.35409556  0.81468423    -0.61600
N388        N  0.36872576  0.42138505  0.70320822    -0.05500
N389        N  0.33738980  0.41457402  0.67568795    -0.58300
N390        N  0.40346571  0.38608944  0.70329249    -0.06800
N391        N  0.39625974  0.35446160  0.67568921    -0.61100
N392        N  0.36815070  0.42096189  0.78755190    -0.05800
N393        N  0.33581924  0.41214210  0.81437203    -0.58300
Mn394      Mn  0.46275383  0.38508815  0.74578187     1.20200
Mn395      Mn  0.36629673  0.48073322  0.74510291     1.09500
Cl396      Cl  0.46197686  0.48132825  0.74494915    -0.86300
C397        C  0.35419080  0.37025917  0.83105281     0.96000
C398        C  0.35473796  0.37263810  0.65870260     0.95800
C399        C  0.35559521  0.30848665  0.60864569    -0.26600
C400        C  0.33131135  0.34941697  0.62572790    -0.14700
C401        C  0.28562276  0.36758623  0.61073370     0.35900
C402        C  0.26599062  0.34484987  0.57896866    -0.26100
C403        C  0.29071318  0.30453528  0.56197241    -0.15300
C404        C  0.33587838  0.28601030  0.57682071     0.37000
N405        N  0.36107536  0.24396096  0.55984881    -0.89600
H406        H  0.39044142  0.29422697  0.61987817     0.18100
H407        H  0.23136496  0.35884420  0.56716016     0.18100
N408        N  0.25925349  0.40903643  0.62749242    -0.88600
H409        H  0.39293125  0.23390416  0.57489664     0.35500
H410        H  0.37396192  0.25581100  0.53411475     0.40600
H411        H  0.24538452  0.39627821  0.65273328     0.40200
H412        H  0.22794178  0.41918807  0.61187130     0.35100
C413        C  0.36392115  0.31821190  0.88716269    -0.26600
C414        C  0.33192270  0.34520857  0.86361048    -0.14700
C415        C  0.27986400  0.34633967  0.87109913     0.35900
C416        C  0.26122485  0.32071006  0.90212467    -0.26100
C417        C  0.29359288  0.29531636  0.92621492    -0.15300
C418        C  0.34538562  0.29368871  0.91856479     0.37000
N419        N  0.37892324  0.26758727  0.94297498    -0.89600
H420        H  0.40381918  0.31702812  0.88144191     0.18100
H421        H  0.22147684  0.32217347  0.90838479     0.18100
N422        N  0.24599161  0.37263621  0.84707059    -0.88600
H423        H  0.41592918  0.27024201  0.93358343     0.35500
H424        H  0.36937870  0.22924468  0.94244456     0.40600
H425        H  0.25236939  0.41135178  0.85047444     0.40200
H426        H  0.20879707  0.36641077  0.85507173     0.35100
C427        C  0.09885345  0.14217515  0.96658360    -0.26600
C428        C  0.09000774  0.11698042  0.49953107    -0.14700
C429        C  0.11809557  0.12873451  0.53138579     0.35900
C430        C  0.15729728  0.16395329  0.52905075    -0.26100
C431        C  0.16640355  0.19224840  0.49680440    -0.15300
C432        C  0.13474186  0.18107050  0.96567806     0.37000
N433        N  0.13491683  0.21506400  0.93504635    -0.89600
H434        H  0.07566969  0.13575698  0.94259013     0.18100
H435        H  0.18058613  0.16874846  0.55307955     0.18100
N436        N  0.10791040  0.10606739  0.56656107    -0.88600
H437        H  0.09958490  0.23208847  0.93343943     0.35500
H438        H  0.14037258  0.19389773  0.91110845     0.40600
H439        H  0.07631068  0.08278695  0.56591695     0.40200
H440        H  0.13862285  0.08348772  0.57357300     0.35100
C441        C  0.75550459  0.15057857  0.97252180    -0.26600
C442        C  0.75390183  0.18695735  0.49546877    -0.14700
C443        C  0.79293325  0.18730885  0.52190205     0.35900
C444        C  0.82840790  0.14797831  0.52219322    -0.26100
C445        C  0.82807875  0.11008556  0.49524156    -0.15300
C446        C  0.79113491  0.11153123  0.97282740     0.37000
N447        N  0.79001878  0.07351094  0.94482002    -0.89600
H448        H  0.72639880  0.14981878  0.95179821     0.18100
H449        H  0.85753065  0.14758459  0.54293780     0.18100
N450        N  0.79748893  0.22830826  0.54762641    -0.88600
H451        H  0.75490617  0.05588269  0.94567769     0.35500
H452        H  0.79357020  0.09145317  0.91935174     0.40600
H453        H  0.80493067  0.26114823  0.53256568     0.40200
H454        H  0.82818164  0.22278880  0.56502549     0.35100
C455        C  0.58354918  0.29917580  0.56941336    -0.26600
C456        C  0.63554940  0.30209520  0.56363897    -0.14700
C457        C  0.66589535  0.32752000  0.58975869     0.35900
C458        C  0.64328594  0.34923927  0.62074008    -0.26100
C459        C  0.59125325  0.34680870  0.62623000    -0.15300
C460        C  0.56095711  0.32161674  0.60021636     0.37000
N461        N  0.50730403  0.32022873  0.60450581    -0.89600
H462        H  0.56032872  0.28019206  0.54924325     0.18100
H463        H  0.66666490  0.36875750  0.64053413     0.18100
N464        N  0.71906113  0.33443391  0.58513674    -0.88600
H465        H  0.49066082  0.29993479  0.58308581     0.35500
H466        H  0.49412528  0.35735268  0.60235487     0.40600
H467        H  0.73182385  0.32177379  0.55968913     0.40200
H468        H  0.73711560  0.31301967  0.60531866     0.35100
C469        C  0.65884423  0.35429784  0.91452863    -0.26600
C470        C  0.64358178  0.30626302  0.92630580    -0.14700
C471        C  0.60518333  0.28070177  0.90692230     0.35900
C472        C  0.58259721  0.30434250  0.87663936    -0.26100
C473        C  0.59727591  0.35285219  0.86498071    -0.15300
C474        C  0.63605275  0.37810405  0.88430303     0.37000
N475        N  0.65144848  0.42826152  0.87395661    -0.89600
H476        H  0.68765680  0.37404721  0.92986870     0.18100
H477        H  0.55297305  0.28449855  0.86224789     0.18100
N478        N  0.58697743  0.23165955  0.91771800    -0.88600
H479        H  0.68136962  0.44054949  0.89022604     0.35500
H480        H  0.62150648  0.45261594  0.87957237     0.40600
H481        H  0.60577642  0.21772018  0.94069535     0.40200
H482        H  0.59461468  0.20661592  0.89620253     0.35100
C483        C  0.13605355  0.77665678  0.52393838    -0.26600
C484        C  0.17177525  0.77642573  0.49542291    -0.14700
C485        C  0.16545489  0.81143736  0.96896551     0.35900
C486        C  0.12675213  0.84746604  0.97070858    -0.26100
C487        C  0.09648947  0.85225911  0.49920932    -0.15300
C488        C  0.09953784  0.81454384  0.52676651     0.37000
N489        N  0.06705828  0.81386708  0.55836141    -0.89600
H490        H  0.13653758  0.74718542  0.54460771     0.18100
H491        H  0.12383789  0.87599625  0.94943626     0.18100
N492        N  0.20278267  0.81498379  0.94051600    -0.88600
H493        H  0.04385924  0.78211610  0.55620907     0.35500
H494        H  0.04392410  0.84561570  0.55956314     0.40600
H495        H  0.23715745  0.82267085  0.95314630     0.40200
H496        H  0.20103905  0.84975805  0.42336615     0.35100
C497        C  0.26051848  0.62840345  0.58365625    -0.26600
C498        C  0.29019417  0.66043400  0.56196228    -0.14700
C499        C  0.34026075  0.67054653  0.57254128     0.35900
C500        C  0.35950197  0.64754677  0.60423026    -0.26100
C501        C  0.33023123  0.61445234  0.62563443    -0.15300
C502        C  0.27982393  0.60545188  0.61548418     0.37000
N503        N  0.24824034  0.57342511  0.63752439    -0.89600
H504        H  0.22217978  0.62084143  0.57540621     0.18100
H505        H  0.39802779  0.65528116  0.61189249     0.18100
N506        N  0.37237464  0.70432211  0.55229525    -0.88600
H507        H  0.21264360  0.56995554  0.62575551     0.35500
H508        H  0.24308392  0.59140229  0.66283513     0.40600
H509        H  0.35382490  0.72108657  0.53021209     0.40200
H510        H  0.40178742  0.68291201  0.54135680     0.35100
C511        C  0.31734429  0.68051356  0.90831467    -0.26600
C512        C  0.27986784  0.65291506  0.92639941    -0.14700
C513        C  0.26580753  0.60485988  0.91296693     0.35900
C514        C  0.28993953  0.58556236  0.88177316    -0.26100
C515        C  0.32819909  0.61269922  0.86376463    -0.15300
C516        C  0.34175212  0.66107239  0.87713061     0.37000
N517        N  0.38035407  0.69022876  0.85939387    -0.89600
H518        H  0.32823820  0.71711913  0.91908975     0.18100
H519        H  0.27895113  0.54853479  0.87188340     0.18100
N520        N  0.22734786  0.57470977  0.93005529    -0.88600
H521        H  0.38709961  0.72380843  0.87372664     0.35500
H522        H  0.36681473  0.70083346  0.83357612     0.40600
H523        H  0.21069780  0.59332087  0.95221249     0.40200
H524        H  0.24442639  0.54219224  0.94054340     0.35100
C525        C  0.76648857  0.79771905  0.52770249    -0.26600
C526        C  0.75993310  0.76803485  0.49583541    -0.14700
C527        C  0.78877664  0.77817737  0.96777721     0.35900
C528        C  0.82322456  0.81834423  0.96986586    -0.26100
C529        C  0.83398262  0.84532327  0.49888651    -0.15300
C530        C  0.80443746  0.83437873  0.52994822     0.37000
N531        N  0.81258834  0.86085211  0.56376425    -0.89600
H532        H  0.74206343  0.79302536  0.55121466     0.18100
H533        H  0.84699133  0.82680040  0.94646801     0.18100
N534        N  0.78947589  0.74550025  0.93622532    -0.88600
H535        H  0.77438044  0.87724332  0.07504517     0.35500
H536        H  0.82103663  0.83416656  0.58402615     0.40600
H537        H  0.80491373  0.70690434  0.44453210     0.40200
H538        H  0.82051412  0.75363000  0.41553002     0.35100
C539        C  0.58882914  0.66578634  0.56922548    -0.26600
C540        C  0.63815512  0.65215796  0.56025099    -0.14700
C541        C  0.66458172  0.61853003  0.58303361     0.35900
C542        C  0.64093450  0.59898773  0.61453971    -0.26100
C543        C  0.59140509  0.61250961  0.62374932    -0.15300
C544        C  0.56520316  0.64682377  0.60088171     0.37000
N545        N  0.51445698  0.66144198  0.60913650    -0.89600
H546        H  0.56875557  0.69163262  0.55140804     0.18100
H547        H  0.66130177  0.57281699  0.63188037     0.18100
N548        N  0.71489241  0.60370098  0.57369659    -0.88600
H549        H  0.49954386  0.68343844  0.58792070     0.35500
H550        H  0.51562774  0.68493130  0.63221378     0.40600
H551        H  0.71330099  0.58372139  0.54893695     0.40200
H552        H  0.72915501  0.57872813  0.59334772     0.35100
C553        C  0.59866616  0.68587673  0.90760964    -0.26600
C554        C  0.63522348  0.65859086  0.92665615    -0.14700
C555        C  0.65022328  0.61068545  0.91389433     0.35900
C556        C  0.62787214  0.59057492  0.88226021    -0.26100
C557        C  0.59044195  0.61720316  0.86320941    -0.15300
C558        C  0.57583561  0.66573045  0.87625386     0.37000
N559        N  0.53811724  0.69561451  0.85858783    -0.89600
H560        H  0.58686315  0.72253509  0.91775497     0.18100
H561        H  0.63943039  0.55354358  0.87276893     0.18100
N562        N  0.68767356  0.58243089  0.93353110    -0.88600
H563        H  0.50399971  0.67615745  0.85950095     0.35500
H564        H  0.54872362  0.70179349  0.83129306     0.40600
H565        H  0.72130392  0.60270635  0.93196864     0.40200
H566        H  0.69414878  0.54757248  0.92082596     0.35100
loop_ 
_geom_bond_atom_site_label_1 
_geom_bond_atom_site_label_2 
_geom_bond_distance 
_geom_bond_site_symmetry_2 
_ccdc_geom_bond_type 
C1            C6   1.413   1_556  A
C1          C285   1.415       .  A
C1          C243   1.504       .  S
C2            C3   1.403       .  A
C2          C284   1.414       .  A
C2            H7   1.081       .  S
C3            C4   1.397       .  A
C3          C271   1.481       .  S
C4          C288   1.396       .  A
C4            H8   1.085       .  S
C5            C6   1.400       .  A
C5          C287   1.394   1_554  A
C5          C257   1.473       .  S
C6            H9   1.081       .  S
C10          C15   1.411   1_556  A
C10         C294   1.411       .  A
C10         C201   1.497       .  S
C11          C12   1.403       .  A
C11         C293   1.410       .  A
C11          H16   1.082       .  S
C12          C13   1.398       .  A
C12         C229   1.475       .  S
C13         C297   1.398       .  A
C13          H17   1.084       .  S
C14          C15   1.401       .  A
C14         C296   1.396   1_554  A
C14         C215   1.474       .  S
C15          H18   1.083       .  S
C19          C24   1.410   1_556  A
C19         C303   1.414       .  A
C19         C159   1.497       .  S
C20          C21   1.404       .  A
C20         C302   1.411       .  A
C20          H25   1.083       .  S
C21          C22   1.397       .  A
C21         C187   1.477       .  S
C22         C306   1.398       .  A
C22          H26   1.085       .  S
C23          C24   1.402       .  A
C23         C305   1.397   1_554  A
C23         C173   1.477       .  S
C24          H27   1.083       .  S
N28          C33   1.355   1_654  A
N28          C32   1.356   1_554  A
N28          H60   1.035       .  S
N29          C36   1.353       .  A
N29          C37   1.353   1_565  A
N30          C35   1.357   1_654  A
N30          C34   1.355   1_554  A
N30          H61   1.035       .  S
N31          C38   1.354   1_556  A
N31          C39   1.354   1_566  A
C32          C40   1.390       .  A
C32          C48   1.424   1_556  A
C33          C49   1.419   1_556  A
C33          C41   1.386   1_455  A
C34          C42   1.386       .  A
C34          C51   1.422   1_556  A
C35          C50   1.423       .  A
C35          C43   1.388   1_455  A
C36          C48   1.420       .  A
C36          C44   1.388       .  A
C37          C51   1.418       .  A
C37          C45   1.386       .  A
C38          C46   1.386       .  A
C38          C49   1.417       .  A
C39          C47   1.388       .  A
C39          C50   1.421   1_554  A
C40          C41   1.371       .  A
C40          H52   1.081       .  S
C41          H53   1.082   1_655  S
C42          C43   1.371       .  A
C42          H54   1.082       .  S
C43          H55   1.080   1_655  S
C44          C45   1.369   1_565  A
C44          H56   1.081       .  S
C45          H57   1.082       .  S
C46          C47   1.368   1_565  A
C46          H58   1.082       .  S
C47          H59   1.081       .  S
C48         C246   1.495       .  S
C49         C204   1.496       .  S
C50         C145   1.500       .  S
C51         C162   1.497       .  S
C62          C67   1.415   1_556  A
C62         C346   1.415       .  A
C62         C148   1.509       .  S
C63          C64   1.401       .  A
C63         C345   1.414       .  A
C63          H68   1.079       .  S
C64          C65   1.394       .  A
C64         C134   1.473       .  S
C65         C349   1.394       .  A
C65          H69   1.085       .  S
C66          C67   1.402       .  A
C66         C348   1.394   1_554  A
C66         C120   1.475       .  S
C67          H70   1.081       .  S
N71          N72   1.319       .  A
N71          N77   1.315       .  A
N71        Mn100   2.192       .  S
N72          C79   1.351       .  A
N73          N75   1.314       .  A
N73          N74   1.319       .  A
N73         Mn89   2.190       .  S
N74          C80   1.352       .  A
N75          N76   1.318       .  A
N75        Mn100   2.195       .  S
N76          C80   1.352       .  A
N77          N78   1.321       .  A
N77         Mn89   2.210       .  S
N78          C79   1.355       .  A
C79         C274   1.480       .  S
C80         C260   1.477       .  S
N81          N87   1.315       .  A
N81          N82   1.319       .  A
N81        Mn111   2.194       .  S
N82          C90   1.352       .  A
N83          N84   1.319       .  A
N83          N85   1.315       .  A
N83         Mn89   2.196       .  S
N84          C91   1.353       .  A
N85          N86   1.322       .  A
N85        Mn111   2.212       .  S
N86          C91   1.356       .  A
N87          N88   1.322       .  A
N87         Mn89   2.210       .  S
N88          C90   1.355       .  A
Mn89       Cl113   2.554       .  S
C90         C176   1.483       .  S
C91         C190   1.487       .  S
N92          N93   1.319       .  A
N92          N98   1.315       .  A
N92        Mn100   2.193       .  S
N93         C101   1.352       .  A
N94          N96   1.315       .  A
N94          N95   1.320       .  A
N94        Mn112   2.203       .  S
N95         C102   1.355       .  A
N96          N97   1.319       .  A
N96        Mn100   2.197       .  S
N97         C102   1.353       .  A
N98          N99   1.321       .  A
N98        Mn112   2.206       .  S
N99         C101   1.355       .  A
Mn100      Cl113   2.541       .  S
C101        C218   1.481       .  S
C102        C232   1.484       .  S
N103        N104   1.318       .  A
N103        N109   1.315       .  A
N103       Mn111   2.191       .  S
N104        C114   1.352       .  A
N105        N106   1.318       .  A
N105        N107   1.315       .  A
N105       Mn112   2.192       .  S
N106        C115   1.351       .  A
N107        N108   1.322       .  A
N107       Mn111   2.213       .  S
N108        C115   1.356       .  A
N109        N110   1.320       .  A
N109       Mn112   2.205       .  S
N110        C114   1.354       .  A
Mn111      Cl113   2.545       .  S
Mn112      Cl113   2.552       .  S
C114        C131   1.482       .  S
C115        C117   1.485       .  S
C116        C117   1.405       .  A
C116        C121   1.404       .  A
C116        H123   1.083       .  S
C117        C118   1.418       .  A
C118        C119   1.405       .  A
C118        N125   1.438       .  S
C119        C120   1.398       .  A
C119        H124   1.084       .  S
C120        C121   1.410       .  A
C121        N122   1.439       .  S
N122        H126   1.046       .  S
N122        H127   1.045       .  S
N125        H128   1.046       .  S
N125        H129   1.046       .  S
C130        C131   1.408       .  A
C130        C135   1.404       .  A
C130        H137   1.083       .  S
C131        C132   1.415       .  A
C132        C133   1.404       .  A
C132        N139   1.438       .  S
C133        C134   1.400       .  A
C133        H138   1.084       .  S
C134        C135   1.405       .  A
C135        N136   1.438       .  S
N136        H140   1.046       .  S
N136        H141   1.046       .  S
N139        H142   1.045       .  S
N139        H143   1.046       .  S
C144        C149   1.402       .  A
C144        C428   1.401       .  A
C144        H151   1.084       .  S
C145        C146   1.417   1_556  A
C145        C427   1.403       .  A
C146        C147   1.402       .  A
C146        N153   1.439       .  S
C147        C148   1.412   1_554  A
C147        H152   1.081       .  S
C148        C432   1.419       .  A
C149        C431   1.420       .  A
C149        N150   1.432       .  S
N150        H154   1.046       .  S
N150        H155   1.046       .  S
N153        H156   1.043       .  S
N153        H157   1.045       .  S
C158        C163   1.404       .  A
C158        C442   1.408       .  A
C158        H165   1.083       .  S
C159        C160   1.419   1_556  A
C159        C441   1.408       .  A
C160        C161   1.407       .  A
C160        N167   1.438       .  S
C161        C162   1.403       .  A
C161        H166   1.084       .  S
C162        C446   1.408   1_554  A
C163        C445   1.408       .  A
C163        N164   1.432       .  S
N164        H168   1.046       .  S
N164        H169   1.045       .  S
N167        H170   1.046       .  S
N167        H171   1.046       .  S
C172        C173   1.401       .  A
C172        C177   1.404       .  A
C172        H179   1.084       .  S
C173        C174   1.416       .  A
C174        C175   1.402       .  A
C174        N181   1.439       .  S
C175        C176   1.405       .  A
C175        H180   1.084       .  S
C176        C177   1.415       .  A
C177        N178   1.438       .  S
N178        H182   1.046       .  S
N178        H183   1.046       .  S
N181        H184   1.043       .  S
N181        H185   1.045       .  S
C186        C187   1.401       .  A
C186        C191   1.406       .  A
C186        H193   1.084       .  S
C187        C188   1.415       .  A
C188        C189   1.402       .  A
C188        N195   1.439       .  S
C189        C190   1.406       .  A
C189        H194   1.084       .  S
C190        C191   1.416       .  A
C191        N192   1.438       .  S
N192        H196   1.046       .  S
N192        H197   1.046       .  S
N195        H198   1.043       .  S
N195        H199   1.045       .  S
C200        C201   1.408   1_554  A
C200        C205   1.400       .  A
C200        H207   1.083       .  S
C201        C485   1.417       .  A
C202        C203   1.408       .  A
C202        C484   1.418       .  A
C202        N209   1.438       .  S
C203        C487   1.404       .  A
C203        H208   1.084       .  S
C204        C205   1.416       .  A
C204        C486   1.404   1_554  A
C205        N206   1.438       .  S
N206        H210   1.045       .  S
N206        H211   1.043       .  S
N209        H212   1.046       .  S
N209        H496   1.046       .  S
H213        N492   1.046       .  S
C214        C215   1.401       .  A
C214        C219   1.405       .  A
C214        H221   1.084       .  S
C215        C216   1.414       .  A
C216        C217   1.399       .  A
C216        N223   1.439       .  S
C217        C218   1.405       .  A
C217        H222   1.084       .  S
C218        C219   1.414       .  A
C219        N220   1.438       .  S
N220        H224   1.046       .  S
N220        H225   1.046       .  S
N223        H226   1.043       .  S
N223        H227   1.046       .  S
C228        C229   1.401       .  A
C228        C233   1.405       .  A
C228        H235   1.084       .  S
C229        C230   1.414       .  A
C230        C231   1.400       .  A
C230        N237   1.438       .  S
C231        C232   1.405       .  A
C231        H236   1.084       .  S
C232        C233   1.416       .  A
C233        N234   1.438       .  S
N234        H238   1.046       .  S
N234        H239   1.046       .  S
N237        H240   1.043       .  S
N237        H241   1.046       .  S
C242        C243   1.412   1_554  A
C242        C247   1.401       .  A
C242        H249   1.081       .  S
C243        C527   1.421       .  A
C244        C245   1.405       .  A
C244        C526   1.421       .  A
C244        N251   1.437       .  S
C245        C529   1.401       .  A
C245        H250   1.084       .  S
C246        C247   1.405       .  A
C246        C528   1.402   1_554  A
C247        N248   1.433       .  S
N248        H253   1.046       .  S
N248        H535   1.046       .  S
N251        H537   1.046       .  S
N251        H538   1.046       .  S
H252        N531   1.046       .  S
H254        N534   1.046       .  S
H255        N534   1.046       .  S
C256        C257   1.401       .  A
C256        C261   1.400       .  A
C256        H263   1.084       .  S
C257        C258   1.407       .  A
C258        C259   1.404       .  A
C258        N265   1.438       .  S
C259        C260   1.406       .  A
C259        H264   1.083       .  S
C260        C261   1.413       .  A
C261        N262   1.438       .  S
N262        H266   1.046       .  S
N262        H267   1.045       .  S
N265        H268   1.046       .  S
N265        H269   1.046       .  S
C270        C271   1.402       .  A
C270        C275   1.398       .  A
C270        H277   1.084       .  S
C271        C272   1.412       .  A
C272        C273   1.406       .  A
C272        N279   1.438       .  S
C273        C274   1.404       .  A
C273        H278   1.084       .  S
C274        C275   1.416       .  A
C275        N276   1.433       .  S
N276        H280   1.046       .  S
N276        H281   1.044       .  S
N279        H282   1.044       .  S
N279        H283   1.046       .  S
C284        C289   1.414       .  A
C284        C526   1.505       .  S
C285        C286   1.402       .  A
C285        H290   1.080       .  S
C286        C287   1.393       .  A
C286        C554   1.472       .  S
C287        H291   1.085       .  S
C288        C289   1.403       .  A
C288        C540   1.477       .  S
C289        H292   1.082       .  S
C293        C298   1.412       .  A
C293        C484   1.498       .  S
C294        C295   1.402       .  A
C294        H299   1.082       .  S
C295        C296   1.396       .  A
C295        C512   1.472       .  S
C296        H300   1.085       .  S
C297        C298   1.403       .  A
C297        C498   1.477       .  S
C298        H301   1.083       .  S
C302        C307   1.410       .  A
C302        C442   1.496       .  S
C303        C304   1.405       .  A
C303        H308   1.083       .  S
C304        C305   1.398       .  A
C304        C470   1.479       .  S
C305        H309   1.085       .  S
C306        C307   1.403       .  A
C306        C456   1.480       .  S
C307        H310   1.083       .  S
N311        C316   1.356   1_655  A
N311        C315   1.356       .  A
N311        H343   1.035       .  S
N312        C319   1.353       .  A
N312        C320   1.354   1_565  A
N313        C318   1.355   1_655  A
N313        C317   1.355       .  A
N313        H344   1.035       .  S
N314        C321   1.353       .  A
N314        C322   1.353   1_565  A
C315        C323   1.390       .  A
C315        C331   1.424       .  A
C316        C332   1.419       .  A
C316        C324   1.385   1_455  A
C317        C325   1.386       .  A
C317        C334   1.419       .  A
C318        C333   1.422       .  A
C318        C326   1.389   1_455  A
C319        C331   1.421       .  A
C319        C327   1.388       .  A
C320        C334   1.417       .  A
C320        C328   1.385       .  A
C321        C329   1.385       .  A
C321        C332   1.416       .  A
C322        C330   1.388       .  A
C322        C333   1.421       .  A
C323        C324   1.371       .  A
C323        H335   1.080       .  S
C324        H336   1.082   1_655  S
C325        C326   1.371       .  A
C325        H337   1.082       .  S
C326        H338   1.080   1_655  S
C327        C328   1.369   1_565  A
C327        H339   1.081       .  S
C328        H340   1.082       .  S
C329        C330   1.370   1_565  A
C329        H341   1.082       .  S
C330        H342   1.081       .  S
C331        C529   1.496       .  S
C332        C487   1.497       .  S
C333        C428   1.496       .  S
C334        C445   1.496       .  S
C345        C350   1.416       .  A
C345        C431   1.508       .  S
C346        C347   1.404       .  A
C346        H351   1.080       .  S
C347        C348   1.396       .  A
C347        C417   1.478       .  S
C348        H352   1.085       .  S
C349        C350   1.403       .  A
C349        C403   1.474       .  S
C350        H353   1.081       .  S
N354        N355   1.318       .  A
N354        N360   1.314       .  A
N354       Mn383   2.186       .  S
N355        C362   1.350       .  A
N356        N358   1.315       .  A
N356        N357   1.320       .  A
N356       Mn372   2.202       .  S
N357        C363   1.354       .  A
N358        N359   1.319       .  A
N358       Mn383   2.203       .  S
N359        C363   1.353       .  A
N360        N361   1.321       .  A
N360       Mn372   2.208       .  S
N361        C362   1.357       .  A
C362        C557   1.485       .  S
C363        C543   1.486       .  S
N364        N370   1.315       .  A
N364        N365   1.318       .  A
N364       Mn394   2.189       .  S
N365        C373   1.351       .  A
N366        N367   1.319       .  A
N366        N368   1.315       .  A
N366       Mn372   2.198       .  S
N367        C374   1.352       .  A
N368        N369   1.323       .  A
N368       Mn394   2.218       .  S
N369        C374   1.358       .  A
N370        N371   1.322       .  A
N370       Mn372   2.210       .  S
N371        C373   1.355       .  A
Mn372      Cl396   2.552       .  S
C373        C459   1.478       .  S
C374        C473   1.491       .  S
N375        N376   1.320       .  A
N375        N381   1.314       .  A
N375       Mn383   2.190       .  S
N376        C384   1.352       .  A
N377        N379   1.315       .  A
N377        N378   1.319       .  A
N377       Mn395   2.194       .  S
N378        C385   1.353       .  A
N379        N380   1.321       .  A
N379       Mn383   2.209       .  S
N380        C385   1.355       .  A
N381        N382   1.321       .  A
N381       Mn395   2.213       .  S
N382        C384   1.356       .  A
Mn383      Cl396   2.545       .  S
C384        C501   1.486       .  S
C385        C515   1.486       .  S
N386        N387   1.318       .  A
N386        N392   1.315       .  A
N386       Mn394   2.189       .  S
N387        C397   1.351       .  A
N388        N389   1.318       .  A
N388        N390   1.315       .  A
N388       Mn395   2.189       .  S
N389        C398   1.351       .  A
N390        N391   1.322       .  A
N390       Mn394   2.213       .  S
N391        C398   1.357       .  A
N392        N393   1.322       .  A
N392       Mn395   2.211       .  S
N393        C397   1.355       .  A
Mn394      Cl396   2.545       .  S
Mn395      Cl396   2.550       .  S
C397        C414   1.481       .  S
C398        C400   1.487       .  S
C399        C400   1.406       .  A
C399        C404   1.405       .  A
C399        H406   1.083       .  S
C400        C401   1.419       .  A
C401        C402   1.405       .  A
C401        N408   1.438       .  S
C402        C403   1.398       .  A
C402        H407   1.084       .  S
C403        C404   1.408       .  A
C404        N405   1.438       .  S
N405        H409   1.046       .  S
N405        H410   1.045       .  S
N408        H411   1.046       .  S
N408        H412   1.046       .  S
C413        C414   1.405       .  A
C413        C418   1.403       .  A
C413        H420   1.084       .  S
C414        C415   1.414       .  A
C415        C416   1.407       .  A
C415        N422   1.438       .  S
C416        C417   1.402       .  A
C416        H421   1.084       .  S
C417        C418   1.408       .  A
C418        N419   1.438       .  S
N419        H423   1.046       .  S
N419        H424   1.045       .  S
N422        H425   1.045       .  S
N422        H426   1.046       .  S
C427        C432   1.405       .  A
C427        H434   1.084       .  S
C428        C429   1.416       .  A
C429        C430   1.402       .  A
C429        N436   1.439       .  S
C430        C431   1.412       .  A
C430        H435   1.081       .  S
C432        N433   1.432       .  S
N433        H437   1.046       .  S
N433        H438   1.046       .  S
N436        H439   1.043       .  S
N436        H440   1.045       .  S
C441        C446   1.403       .  A
C441        H448   1.083       .  S
C442        C443   1.418       .  A
C443        C444   1.406       .  A
C443        N450   1.438       .  S
C444        C445   1.402       .  A
C444        H449   1.084       .  S
C446        N447   1.432       .  S
N447        H451   1.046       .  S
N447        H452   1.045       .  S
N450        H453   1.046       .  S
N450        H454   1.046       .  S
C455        C456   1.403       .  A
C455        C460   1.404       .  A
C455        H462   1.084       .  S
C456        C457   1.419       .  A
C457        C458   1.401       .  A
C457        N464   1.438       .  S
C458        C459   1.402       .  A
C458        H463   1.084       .  S
C459        C460   1.412       .  A
C460        N461   1.439       .  S
N461        H465   1.046       .  S
N461        H466   1.046       .  S
N464        H467   1.042       .  S
N464        H468   1.045       .  S
C469        C470   1.400       .  A
C469        C474   1.406       .  A
C469        H476   1.084       .  S
C470        C471   1.416       .  A
C471        C472   1.404       .  A
C471        N478   1.439       .  S
C472        C473   1.406       .  A
C472        H477   1.084       .  S
C473        C474   1.418       .  A
C474        N475   1.438       .  S
N475        H479   1.046       .  S
N475        H480   1.046       .  S
N478        H481   1.043       .  S
N478        H482   1.046       .  S
C483        C484   1.407       .  A
C483        C488   1.401       .  A
C483        H490   1.083       .  S
C485        C486   1.406       .  A
C485        N492   1.438       .  S
C486        H491   1.084       .  S
C487        C488   1.417       .  A
C488        N489   1.438       .  S
N489        H493   1.045       .  S
N489        H494   1.043       .  S
N492        H495   1.046       .  S
C497        C498   1.401       .  A
C497        C502   1.406       .  A
C497        H504   1.084       .  S
C498        C499   1.415       .  A
C499        C500   1.402       .  A
C499        N506   1.439       .  S
C500        C501   1.407       .  A
C500        H505   1.084       .  S
C501        C502   1.414       .  A
C502        N503   1.437       .  S
N503        H507   1.046       .  S
N503        H508   1.046       .  S
N506        H509   1.043       .  S
N506        H510   1.046       .  S
C511        C512   1.400       .  A
C511        C516   1.405       .  A
C511        H518   1.084       .  S
C512        C513   1.412       .  A
C513        C514   1.401       .  A
C513        N520   1.439       .  S
C514        C515   1.408       .  A
C514        H519   1.084       .  S
C515        C516   1.416       .  A
C516        N517   1.437       .  S
N517        H521   1.046       .  S
N517        H522   1.045       .  S
N520        H523   1.043       .  S
N520        H524   1.046       .  S
C525        C526   1.412       .  A
C525        C530   1.403       .  A
C525        H532   1.081       .  S
C527        C528   1.406       .  A
C527        N534   1.437       .  S
C528        H533   1.084       .  S
C529        C530   1.407       .  A
C530        N531   1.433       .  S
N531        H536   1.045       .  S
C539        C540   1.401       .  A
C539        C544   1.404       .  A
C539        H546   1.084       .  S
C540        C541   1.406       .  A
C541        C542   1.406       .  A
C541        N548   1.437       .  S
C542        C543   1.408       .  A
C542        H547   1.083       .  S
C543        C544   1.416       .  A
C544        N545   1.438       .  S
N545        H549   1.046       .  S
N545        H550   1.045       .  S
N548        H551   1.046       .  S
N548        H552   1.046       .  S
C553        C554   1.398       .  A
C553        C558   1.400       .  A
C553        H560   1.084       .  S
C554        C555   1.407       .  A
C555        C556   1.402       .  A
C555        N562   1.438       .  S
C556        C557   1.405       .  A
C556        H561   1.083       .  S
C557        C558   1.423       .  A
C558        N559   1.432       .  S
N559        H563   1.045       .  S
N559        H564   1.045       .  S
N562        H565   1.046       .  S
N562        H566   1.046       .  S
