geometry optimzed in LAMMPS
_audit_creation_date              2020-11-30 
_audit_creation_method            'lammps2cif' 
_symmetry_space_group_name_H-M    'P1' 
_symmetry_Int_Tables_number       1 
_symmetry_cell_setting            triclinic 
loop_ 
_symmetry_equiv_pos_as_xyz 
  x,y,z 
_cell_length_a                    37.7282216 
_cell_length_b                    39.87231193861029 
_cell_length_c                    29.112584207171633 
_cell_angle_alpha                 90.70862386005635 
_cell_angle_beta                  90.31857332323005 
_cell_angle_gamma                 89.732086215645 
loop_ 
_atom_site_label 
_atom_site_type_symbol 
_atom_site_fract_x 
_atom_site_fract_y 
_atom_site_fract_z 
_atom_site_charge 
C1          C  0.36570236  0.36646128  0.00665802     0.80300
N2          N  0.35849842  0.34942627  0.04599794    -0.78000
C3          C  0.33264287  0.32566383  0.04596721     0.82700
N4          N  0.31740687  0.31776963  0.49919926    -0.78000
C5          C  0.32399122  0.33532060  0.46072187     0.82800
N6          N  0.35040352  0.35828388  0.46088367    -0.79700
C7          C  0.05070539  0.35883936  0.99236159     0.80300
N8          N  0.05798536  0.34657384  0.45358228    -0.78000
C9          C  0.08398162  0.32302957  0.45136641     0.82700
N10         N  0.10163893  0.31420970  0.49018317    -0.78000
C11         C  0.09227350  0.32371670  0.02841742     0.82800
N12         N  0.06761163  0.34849528  0.03104588    -0.79700
C13         C  0.37483915  0.04105092  0.98956135     0.80300
N14         N  0.37214248  0.05803350  0.45148771    -0.78000
C15         C  0.35040698  0.08531085  0.45126729     0.82700
N16         N  0.33536599  0.09578716  0.49106938    -0.78000
C17         C  0.33720011  0.08022411  0.02590754     0.82800
N18         N  0.35945131  0.05349463  0.02838403    -0.79700
N19         N  0.46041262  0.39725819  0.00199561    -0.36600
N20         N  0.01983822  0.44824413  0.99681281    -0.57100
N21         N  0.46563802  0.00263111  0.99377140    -0.36600
N22         N  0.40886762  0.45177094  0.00061117    -0.57100
C23         C  0.48836575  0.37590897  0.00380171     0.27000
C24         C  0.43043282  0.37901941  0.00712882     0.27000
C25         C  0.49516752  0.02178440  0.99849728     0.27000
C26         C  0.43716832  0.02326020  0.99595525     0.27600
C27         C  0.03852292  0.41960699  0.99045396     0.35600
C28         C  0.04276920  0.47393145  0.99143453     0.35600
C29         C  0.38580399  0.42582441  0.00056585     0.35600
C30         C  0.38958362  0.48011737  0.99511097     0.35600
C31         C  0.47603697  0.34354922  0.01003105    -0.21900
C32         C  0.43963533  0.34549488  0.01212112    -0.21900
C33         C  0.48518685  0.05516743  0.00291346    -0.21900
C34         C  0.44875784  0.05612098  0.00128093    -0.21900
C35         C  0.07370930  0.42714624  0.98165618    -0.22900
C36         C  0.07642082  0.46148457  0.98254788    -0.22900
C37         C  0.35148123  0.43793538  0.99574067    -0.22900
C38         C  0.35387965  0.47217674  0.99207663    -0.22900
C39         C  0.02505049  0.38669320  0.99494443    -0.18300
C40         C  0.39498538  0.39140718  0.00552422    -0.18300
C41         C  0.40095928  0.01371877  0.99301007    -0.18300
C42         C  0.03325200  0.00857049  0.99513160    -0.18300
H43         H  0.99307622  0.32487450  0.02156594     0.14600
H44         H  0.42203001  0.32440204  0.01618702     0.14600
H45         H  0.50231797  0.07671889  0.00684923     0.14600
H46         H  0.43264703  0.07858705  0.00400374     0.14600
H47         H  0.09534896  0.40971549  0.97580234     0.12900
H48         H  0.10050046  0.47557225  0.97748797     0.12900
H49         H  0.32714983  0.42367244  0.99497610     0.12900
H50         H  0.33175601  0.48929104  0.98801908     0.12900
H51         H  0.46192615  0.42223873  0.99628111     0.26200
H52         H  0.46606537  0.47558998  0.98734846     0.26200
C53         C  0.06241082  0.03360999  0.99664848     0.80300
N54         N  0.07235163  0.04790609  0.03756792    -0.78000
C55         C  0.09947865  0.07026524  0.03907063     0.82700
N56         N  0.11223798  0.07950774  0.49791023    -0.78000
C57         C  0.10345021  0.06345795  0.45819100     0.82800
N58         N  0.07714032  0.04028881  0.45812664    -0.79700
O59         O  0.17201635  0.23344981  0.34002578    -0.80100
O60         O  0.17709659  0.17495563  0.16164820    -0.80100
O61         O  0.19083090  0.28465466  0.20901384    -0.80100
O62         O  0.20690281  0.12546355  0.29834780    -0.80100
O63         O  0.17991802  0.23795396  0.16861321    -0.80200
O64         O  0.17382986  0.16413258  0.33299732    -0.80100
O65         O  0.17573201  0.14144471  0.21914964    -0.80100
O66         O  0.15537075  0.24667801  0.26964498    -0.80100
C67         C  0.15058325  0.24744733  0.31282962     1.09600
C68         C  0.16403386  0.14983758  0.17994652     1.09500
C69         C  0.17651051  0.26993516  0.17460191     1.09600
C70         C  0.18115427  0.13357128  0.32456471     1.09500
O71         O  0.24868254  0.16660447  0.34329206    -0.80100
O72         O  0.24810718  0.22467761  0.16157936    -0.80200
O73         O  0.22070758  0.27474692  0.29829797    -0.80100
O74         O  0.24328972  0.11672111  0.21148450    -0.80100
O75         O  0.24507760  0.16401815  0.17142633    -0.80100
O76         O  0.24720615  0.23503394  0.33863430    -0.80100
O77         O  0.27216452  0.15886974  0.27506907    -0.80100
O78         O  0.25525593  0.25432244  0.22290011    -0.80100
Co79       Co  0.21030514  0.19987094  0.33452297     1.51500
Co80       Co  0.21179662  0.20072867  0.19496597     1.51700
Co81       Co  0.20471842  0.24679890  0.24491529     1.51600
Co82       Co  0.22426737  0.15373197  0.24598106     1.51500
O83         O  0.21177359  0.20001807  0.26580818    -1.42000
C84         C  0.27444529  0.15763914  0.31853574     1.09500
C85         C  0.26466955  0.24739245  0.18214384     1.09600
C86         C  0.24368663  0.26549517  0.32755862     1.09500
C87         C  0.25423396  0.13305463  0.17693797     1.09500
C88         C  0.10624538  0.12417039  0.07978434    -0.12200
C89         C  0.10876119  0.08922443  0.08134708     0.04800
C90         C  0.12423854  0.07410774  0.12016132    -0.07500
C91         C  0.13832468  0.09438466  0.15586315    -0.08300
C92         C  0.13812938  0.12963311  0.15260310    -0.02800
C93         C  0.12046416  0.14446370  0.11470118     0.04000
N94         N  0.11906102  0.18018951  0.10934606     0.66500
H95         H  0.09431118  0.13591612  0.05002989     0.15400
H96         H  0.15268093  0.08252108  0.18366269     0.15100
N97         N  0.12977216  0.03862382  0.12109673     0.74200
O98         O  0.12798811  0.19316493  0.07181102    -0.39200
O99         O  0.10904390  0.19887483  0.14213394    -0.39200
O100        O  0.15298256  0.02525950  0.09562870    -0.39900
O101        O  0.11448271  0.02122947  0.15091064    -0.40000
C102        C  0.10475075  0.08906599  0.38052974    -0.12200
C103        C  0.12263856  0.07237258  0.41595989     0.04800
C104        C  0.15999114  0.07068431  0.41535466    -0.07500
C105        C  0.17895101  0.08874177  0.38257518    -0.08300
C106        C  0.16113815  0.10778206  0.34947370    -0.02800
C107        C  0.12379700  0.10638623  0.34695907     0.04000
N108        N  0.10504565  0.12264740  0.31063693     0.66500
H109        H  0.07604421  0.09019928  0.38034468     0.15400
H110        H  0.20764607  0.08930053  0.38445473     0.15100
N111        N  0.17883779  0.05172556  0.44917278     0.74200
O112        O  0.10311888  0.10859252  0.27164086    -0.39200
O113        O  0.08545844  0.14757708  0.31938243    -0.39200
O114        O  0.17110030  0.02137546  0.45559469    -0.39900
O115        O  0.20338541  0.06513768  0.47246774    -0.40000
C116        C  0.28352470  0.13799854  0.10221286    -0.12200
C117        C  0.27779099  0.11843165  0.14125674     0.04800
C118        C  0.29524681  0.08716260  0.14450711    -0.07500
C119        C  0.31574470  0.07524649  0.10734830    -0.08300
C120        C  0.31978123  0.09451888  0.06738594    -0.02800
C121        C  0.30462889  0.12694765  0.06629463     0.04000
N122        N  0.31065596  0.14951850  0.02926867     0.66500
H123        H  0.27170848  0.16268782  0.09907279     0.15400
H124        H  0.32787009  0.05062701  0.10943952     0.15100
N125        N  0.29299291  0.06761309  0.18518022     0.74200
O126        O  0.34115341  0.16158592  0.02351791    -0.39200
O127        O  0.28468715  0.16136233  0.00715189    -0.39200
O128        O  0.27038792  0.04449941  0.18762610    -0.39900
O129        O  0.31658890  0.07038315  0.21587373    -0.40000
C130        C  0.33834185  0.13926430  0.41435705    -0.12200
C131        C  0.34224644  0.10448689  0.40920648     0.04800
C132        C  0.33093742  0.08901378  0.36787266    -0.07500
C133        C  0.31266876  0.10807685  0.33473022    -0.08300
C134        C  0.30481439  0.14219660  0.34288763    -0.02800
C135        C  0.31878136  0.15796104  0.38286352     0.04000
N136        N  0.30985828  0.19185276  0.39519861     0.66500
H137        H  0.34723818  0.15151814  0.44576536     0.15400
H138        H  0.30123086  0.09536470  0.30510831     0.15100
N139        N  0.33363046  0.05348467  0.36178913     0.74200
O140        O  0.28046948  0.19768503  0.41428555    -0.39200
O141        O  0.33452987  0.21279123  0.40077577    -0.39200
O142        O  0.30851338  0.03487796  0.37404361    -0.39900
O143        O  0.36222776  0.04050746  0.34781583    -0.40000
C144        C  0.14900291  0.31984941  0.07069537    -0.12200
C145        C  0.11250610  0.31366113  0.06931391     0.04800
C146        C  0.09661634  0.29595143  0.10520805    -0.07500
C147        C  0.11776249  0.28341132  0.14094075    -0.08300
C148        C  0.15460800  0.28844149  0.14135850    -0.02800
C149        C  0.17021544  0.30726160  0.10622186     0.04000
N150        N  0.20779314  0.31135778  0.10393898     0.66500
H151        H  0.16132633  0.33324597  0.04285927     0.15400
H152        H  0.10562346  0.26854320  0.16745767     0.15100
N153        N  0.05956761  0.28860505  0.10406912     0.74200
O154        O  0.22725305  0.28595319  0.09747026    -0.39200
O155        O  0.22062412  0.34022582  0.09869861    -0.39200
O156        O  0.05768238  0.25888438  0.57237305    -0.39900
O157        O  0.03843477  0.29916265  0.61735101    -0.40000
C158        C  0.12908220  0.30303770  0.33863357    -0.12200
C159        C  0.12299922  0.26828182  0.33505201     0.04800
C160        C  0.09938290  0.25341960  0.36620719    -0.07500
C161        C  0.08444062  0.27257431  0.40178084    -0.08300
C162        C  0.09294902  0.30640502  0.40753407    -0.02800
C163        C  0.11427921  0.32214920  0.37474211     0.04000
N164        N  0.12429357  0.35646615  0.38079582     0.66500
H165        H  0.14823748  0.31465815  0.31630454     0.15400
H166        H  0.06815399  0.26032554  0.42709125     0.15100
N167        N  0.09279151  0.21820053  0.36492329     0.74200
O168        O  0.15237876  0.36362678  0.40245219    -0.39200
O169        O  0.10269109  0.37948917  0.37060635    -0.39200
O170        O  0.11490340  0.19855055  0.38321051    -0.39900
O171        O  0.06155942  0.20818722  0.35769790    -0.40000
C172        C  0.31374441  0.32036668  0.12808440    -0.12200
C173        C  0.32488581  0.30508379  0.08688309     0.04800
C174        C  0.32237599  0.26993539  0.08224861    -0.07500
C175        C  0.30623441  0.25116270  0.11659603    -0.08300
C176        C  0.29165754  0.26664035  0.15596528    -0.02800
C177        C  0.29691708  0.30156597  0.16244202     0.04000
N178        N  0.28168348  0.31905678  0.20069663     0.66500
H179        H  0.31511946  0.34740146  0.13185420     0.15400
H180        H  0.30292385  0.22444307  0.11081943     0.15100
N181        N  0.33452637  0.25312867  0.04153741     0.74200
O182        O  0.30176053  0.33261117  0.23024072    -0.39200
O183        O  0.24946127  0.32756670  0.19915851    -0.39200
O184        O  0.36693756  0.24585557  0.03733496    -0.39900
O185        O  0.31252135  0.24275460  0.01186290    -0.40000
C186        C  0.32145623  0.31021692  0.38254056    -0.12200
C187        C  0.30395359  0.32678736  0.41870520     0.04800
C188        C  0.26664227  0.32824770  0.41863821    -0.07500
C189        C  0.24739206  0.31045412  0.38535827    -0.08300
C190        C  0.26482893  0.29047849  0.35270082    -0.02800
C191        C  0.30222455  0.29150573  0.34974061     0.04000
N192        N  0.32105715  0.27313992  0.31478511     0.66500
H193        H  0.35016721  0.30912960  0.38230669     0.15400
H194        H  0.21869474  0.31010970  0.38733820     0.15100
N195        N  0.24792994  0.34601229  0.45391341     0.74200
O196        O  0.34472413  0.28756091  0.29188572    -0.39200
O197        O  0.31765552  0.24176382  0.31095071    -0.39200
O198        O  0.23596526  0.37497482  0.44593717    -0.39900
O199        O  0.23689194  0.33034306  0.48836102    -0.40000
C200        C  0.36942304  0.36429610  0.50003003     0.80300
N201        N  0.36239071  0.34658798  0.53888094    -0.78000
C202        C  0.33644779  0.32288779  0.53825019     0.82700
N203        N  0.31389877  0.31961429  0.00690787    -0.78000
C204        C  0.32062359  0.33642543  0.96779220     0.82800
N205        N  0.34702236  0.35949984  0.96746581    -0.79700
C206        C  0.04946215  0.36094920  0.49465028     0.80300
N207        N  0.05851468  0.34451304  0.95098544    -0.78000
C208        C  0.08293628  0.31949226  0.94842522     0.82700
N209        N  0.09982164  0.30931710  0.98715966    -0.78000
C210        C  0.09343157  0.32881273  0.53113779     0.82800
N211        N  0.06728552  0.35219567  0.53338827    -0.79700
C212        C  0.37854835  0.04174486  0.49169837     0.80300
N213        N  0.36814936  0.05532996  0.94809006    -0.78000
C214        C  0.34576993  0.08196871  0.94558935     0.82700
N215        N  0.33049864  0.09393263  0.98439980    -0.78000
C216        C  0.34141208  0.07968752  0.53098211     0.82800
N217        N  0.36299802  0.05248319  0.53130734    -0.79700
N218        N  0.46287899  0.39844686  0.49663514    -0.36600
N219        N  0.01687444  0.44965528  0.49737919    -0.57100
N220        N  0.46851519  0.00200339  0.50001639    -0.36600
N221        N  0.40943661  0.45071374  0.49569881    -0.57100
C222        C  0.49166136  0.37826970  0.49831301     0.27000
C223        C  0.43366691  0.37897180  0.50029248     0.27000
C224        C  0.49863778  0.01998104  0.49468144     0.27000
C225        C  0.44075930  0.02233456  0.49041440     0.27600
C226        C  0.03617404  0.42128798  0.49215773     0.35600
C227        C  0.03952467  0.47556541  0.49239427     0.35600
C228        C  0.38724795  0.42419047  0.49683877     0.35600
C229        C  0.38912002  0.47856724  0.49327043     0.35600
C230        C  0.48064074  0.34525178  0.50242875    -0.21900
C231        C  0.44418661  0.34570530  0.50370050    -0.21900
C232        C  0.48986970  0.05243010  0.48236637    -0.21900
C233        C  0.45347696  0.05395671  0.47968670    -0.21900
C234        C  0.07143299  0.42923781  0.48454201    -0.22900
C235        C  0.07356908  0.46355498  0.48492786    -0.22900
C236        C  0.35239921  0.43534726  0.49532378    -0.22900
C237        C  0.35357683  0.46969064  0.49287717    -0.22900
C238        C  0.02314120  0.38824787  0.49640135    -0.18300
C239        C  0.39779218  0.39006697  0.49970047    -0.18300
C240        C  0.40429062  0.01386335  0.49348432    -0.18300
C241        C  0.03133275  0.00771649  0.49780536    -0.18300
H242        H  0.99156411  0.32601638  0.52186877     0.14600
H243        H  0.42742887  0.32389042  0.50661796     0.14600
H244        H  0.50780684  0.07294329  0.47598246     0.14600
H245        H  0.43825147  0.07611077  0.47122446     0.14600
H246        H  0.09348955  0.41210728  0.47974792     0.12900
H247        H  0.09755611  0.47791546  0.48055184     0.12900
H248        H  0.32854461  0.42039229  0.49595534     0.12900
H249        H  0.33077885  0.48621088  0.49099798     0.12900
H250        H  0.46358312  0.42393975  0.49220069     0.26200
H251        H  0.46558011  0.47668175  0.50309324     0.26200
C252        C  0.06037904  0.03277205  0.49809507     0.80300
N253        N  0.06968222  0.04894158  0.53797150    -0.78000
C254        C  0.09565112  0.07250786  0.53782231     0.82700
N255        N  0.11647253  0.07807873  0.99982857    -0.78000
C256        C  0.10717262  0.06388526  0.95905216     0.82800
N257        N  0.07973977  0.04183329  0.95730715    -0.79700
O258        O  0.17560573  0.23501187  0.83661423    -0.80100
O259        O  0.17489020  0.17812379  0.65831219    -0.80100
O260        O  0.19628441  0.28731686  0.70645385    -0.80100
O261        O  0.20599061  0.12649514  0.79374040    -0.80100
O262        O  0.18090306  0.24124761  0.66712587    -0.80200
O263        O  0.17564042  0.16598858  0.83025321    -0.80100
O264        O  0.17246768  0.14495319  0.71608964    -0.80100
O265        O  0.15941471  0.24975845  0.76652618    -0.80100
C266        C  0.15402165  0.24903618  0.80956358     1.09600
C267        C  0.16079414  0.15362026  0.67693729     1.09500
C268        C  0.17954307  0.27340456  0.67332041     1.09600
C269        C  0.18186267  0.13524835  0.82189335     1.09500
O270        O  0.25117038  0.16677585  0.83738931    -0.80100
O271        O  0.24786153  0.22521264  0.65595390    -0.80200
O272        O  0.22581229  0.27577996  0.79502459    -0.80100
O273        O  0.23803575  0.11671708  0.70579747    -0.80100
O274        O  0.24324288  0.16392692  0.66590612    -0.80100
O275        O  0.25110596  0.23512456  0.83458367    -0.80100
O276        O  0.27127269  0.15691581  0.76754954    -0.80100
O277        O  0.25908567  0.25372355  0.71743923    -0.80100
Co278      Co  0.21324201  0.20083710  0.83042603     1.51500
Co279      Co  0.21167286  0.20208544  0.69065308     1.51700
Co280      Co  0.20868108  0.24849012  0.74126205     1.51600
Co281      Co  0.22237370  0.15450740  0.74082950     1.51500
O282        O  0.21359038  0.20131612  0.76157932    -1.42000
C283        C  0.27499538  0.15564945  0.81087997     1.09500
C284        C  0.26650805  0.24680078  0.67588637     1.09600
C285        C  0.24763724  0.26589262  0.82536686     1.09500
C286        C  0.25074629  0.13253470  0.67192298     1.09500
C287        C  0.10507293  0.12764995  0.57496313    -0.12200
C288        C  0.10472576  0.09276383  0.57923328     0.04800
C289        C  0.11632372  0.07849729  0.62081513    -0.07500
C290        C  0.13104648  0.09916335  0.65567614    -0.08300
C291        C  0.13406424  0.13406057  0.64974081    -0.02800
C292        C  0.11875019  0.14837363  0.60981699     0.04000
N293        N  0.11842696  0.18394778  0.60316726     0.66500
H294        H  0.09526564  0.13892029  0.54362681     0.15400
H295        H  0.14305192  0.08750383  0.68539212     0.15100
N296        N  0.11671494  0.04293073  0.62619424     0.74200
O297        O  0.12809974  0.19608332  0.56541295    -0.39200
O298        O  0.10686195  0.20321694  0.63438671    -0.39200
O299        O  0.13899909  0.02515479  0.60462761    -0.39900
O300        O  0.09639232  0.02948702  0.65481781    -0.40000
C301        C  0.10797099  0.08814466  0.88048264    -0.12200
C302        C  0.12659835  0.07412998  0.91746416     0.04800
C303        C  0.16402027  0.07591370  0.91828260    -0.07500
C304        C  0.18178320  0.09402384  0.88445133    -0.08300
C305        C  0.16302786  0.10994108  0.84919514    -0.02800
C306        C  0.12589893  0.10583531  0.84614964     0.04000
N307        N  0.10621066  0.11947485  0.80848991     0.66500
H308        H  0.07930312  0.08667873  0.87941572     0.15400
H309        H  0.21030036  0.09691437  0.88681466     0.15100
N310        N  0.18413309  0.06029416  0.95419330     0.74200
O311        O  0.11421378  0.11103301  0.76793576    -0.39200
O312        O  0.07739982  0.13479874  0.81567780    -0.39200
O313        O  0.17765289  0.03046076  0.96539345    -0.39900
O314        O  0.20942809  0.07571415  0.97343082    -0.40000
C315        C  0.29687417  0.13880993  0.61344473    -0.12200
C316        C  0.27654653  0.11696492  0.63992676     0.04800
C317        C  0.28216257  0.08204710  0.63513834    -0.07500
C318        C  0.30594900  0.06986273  0.60172171    -0.08300
C319        C  0.32385133  0.09211724  0.57291348    -0.02800
C320        C  0.32020174  0.12687068  0.58036052     0.04000
N321        N  0.33929001  0.15053968  0.55359425     0.66500
H322        H  0.29454397  0.16570080  0.61795306     0.15400
H323        H  0.30853998  0.04303853  0.59618491     0.15100
N324        N  0.26252542  0.05873367  0.66169353     0.74200
O325        O  0.37227782  0.15379667  0.55930383    -0.39200
O326        O  0.32253289  0.17145463  0.52950460    -0.39200
O327        O  0.23064912  0.05256341  0.65145971    -0.39900
O328        O  0.27804231  0.04165720  0.69204044    -0.40000
C329        C  0.34044647  0.13459228  0.90291646    -0.12200
C330        C  0.33837031  0.09954736  0.90218418     0.04800
C331        C  0.32257227  0.08330023  0.86407613    -0.07500
C332        C  0.30596266  0.10251803  0.82973822    -0.08300
C333        C  0.30465477  0.13776391  0.83332512    -0.02800
C334        C  0.32344354  0.15376340  0.86947888     0.04000
N335        N  0.32220783  0.18938347  0.87583224     0.66500
H336        H  0.35265547  0.14732976  0.93200897     0.15400
H337        H  0.29078906  0.08980124  0.80308407     0.15100
N338        N  0.31911892  0.04762552  0.86295970     0.74200
O339        O  0.29669572  0.20228711  0.89774933    -0.39200
O340        O  0.35043706  0.20591913  0.87192293    -0.39200
O341        O  0.29247717  0.03407808  0.88089671    -0.39900
O342        O  0.34460733  0.02959324  0.84924858    -0.40000
C343        C  0.14787991  0.33102590  0.57898930    -0.12200
C344        C  0.11321622  0.31930183  0.57257117     0.04800
C345        C  0.09917994  0.29609058  0.60340478    -0.07500
C346        C  0.12078542  0.28308573  0.63816023    -0.08300
C347        C  0.15633487  0.29290100  0.64264622    -0.02800
C348        C  0.16951638  0.31813064  0.61398614     0.04000
N349        N  0.20546704  0.32895128  0.61749415     0.66500
H350        H  0.15872524  0.34903733  0.55534658     0.15400
H351        H  0.11011347  0.26445737  0.66095473     0.15100
N352        N  0.06379059  0.28399724  0.59795273     0.74200
O353        O  0.22988360  0.31020349  0.60237147    -0.39200
O354        O  0.21202807  0.35930994  0.62671908    -0.39200
O355        O  0.04799319  0.26534422  0.07839228    -0.39900
O356        O  0.03818923  0.30629583  0.12722964    -0.40000
C357        C  0.12430344  0.30229971  0.83237669    -0.12200
C358        C  0.12434819  0.26699696  0.83194763     0.04800
C359        C  0.10452562  0.25013066  0.86548811    -0.07500
C360        C  0.08863555  0.26814011  0.90133507    -0.08300
C361        C  0.09164356  0.30298987  0.90434028    -0.02800
C362        C  0.10783109  0.32041561  0.86828284     0.04000
N363        N  0.11124696  0.35608252  0.87054511     0.66500
H364        H  0.14009311  0.31567604  0.80764976     0.15400
H365        H  0.07580301  0.25458333  0.92864123     0.15100
N366        N  0.10286496  0.21436426  0.86592615     0.74200
O367        O  0.13655681  0.36911401  0.89284099    -0.39200
O368        O  0.08643399  0.37444347  0.85586217    -0.39200
O369        O  0.12507085  0.19824079  0.88966261    -0.39900
O370        O  0.07431192  0.20032709  0.85404946    -0.40000
C371        C  0.32038309  0.31690219  0.62149201    -0.12200
C372        C  0.32820977  0.30195702  0.57874695     0.04800
C373        C  0.32173926  0.26739287  0.57253266    -0.07500
C374        C  0.30477781  0.24930480  0.60685116    -0.08300
C375        C  0.29365873  0.26472886  0.64813403    -0.02800
C376        C  0.30300663  0.29869711  0.65606357     0.04000
N377        N  0.29177816  0.31614676  0.69661947     0.66500
H378        H  0.32486405  0.34351171  0.62661199     0.15400
H379        H  0.29837478  0.22331536  0.59979284     0.15100
N380        N  0.33062572  0.25067046  0.53031885     0.74200
O381        O  0.31471586  0.32702465  0.72465107    -0.39200
O382        O  0.26036550  0.32693350  0.69926854    -0.39200
O383        O  0.36261716  0.24440685  0.52097113    -0.39900
O384        O  0.30644294  0.24094663  0.50321492    -0.40000
C385        C  0.32049842  0.31447218  0.88742710    -0.12200
C386        C  0.30134560  0.32651508  0.92543714     0.04800
C387        C  0.26423988  0.32276100  0.92587116    -0.07500
C388        C  0.24724856  0.30514378  0.89039414    -0.08300
C389        C  0.26662717  0.29029223  0.85464771    -0.02800
C390        C  0.30375617  0.29561711  0.85226249     0.04000
N391        N  0.32503639  0.28152217  0.81581729     0.66500
H392        H  0.34907452  0.31709589  0.88724682     0.15400
H393        H  0.21886449  0.30122206  0.89234777     0.15100
N394        N  0.24360334  0.33535765  0.96334920     0.74200
O395        O  0.35287460  0.29627993  0.80341131    -0.39200
O396        O  0.31825862  0.25295271  0.79892524    -0.39200
O397        O  0.23206644  0.36509192  0.96239204    -0.39900
O398        O  0.23108661  0.31518556  0.99203970    -0.40000
C399        C  0.36632343  0.86626928  0.99964074     0.80300
N400        N  0.35994644  0.84606391  0.03630254    -0.78000
C401        C  0.33523031  0.82135170  0.03267905     0.82700
N402        N  0.31468460  0.82054360  0.49980226    -0.78000
C403        C  0.32189260  0.83779499  0.46121614     0.82800
N404        N  0.34838937  0.86088655  0.46196945    -0.79700
C405        C  0.05371781  0.85924687  0.99165957     0.80300
N406        N  0.05751754  0.84583392  0.44990604    -0.78000
C407        C  0.08324118  0.82218402  0.44565686     0.82700
N408        N  0.10107678  0.81170118  0.48338688    -0.78000
C409        C  0.09633298  0.82507259  0.02763252     0.82800
N410        N  0.07106429  0.84935321  0.03030050    -0.79700
C411        C  0.37742575  0.54113119  0.99154318     0.80300
N412        N  0.36915559  0.55482951  0.44765073    -0.78000
C413        C  0.34713693  0.58182192  0.44680721     0.82700
N414        N  0.33151224  0.59248272  0.48617123    -0.78000
C415        C  0.34014555  0.58044187  0.02863906     0.82800
N416        N  0.36220347  0.55346444  0.03056612    -0.79700
N417        N  0.46019034  0.89941592  0.00388782    -0.36600
N418        N  0.02042624  0.94803435  0.99545321    -0.57100
N419        N  0.46765124  0.50057677  0.99462271    -0.36600
N420        N  0.40763378  0.95237571  0.99822233    -0.57100
C421        C  0.48844932  0.87873957  0.99889921     0.27000
C422        C  0.43053379  0.88031726  0.00134187     0.27000
C423        C  0.49770986  0.51885447  0.00023024     0.27000
C424        C  0.43970217  0.52188295  0.99793582     0.27600
C425        C  0.04011126  0.91980512  0.99098777     0.35600
C426        C  0.04288016  0.97421982  0.99163289     0.35600
C427        C  0.38493426  0.92624508  0.00024811     0.35600
C428        C  0.38777186  0.98052014  0.99519409     0.35600
C429        C  0.47662819  0.84589498  0.99462572    -0.21900
C430        C  0.44026491  0.84689925  0.99610999    -0.21900
C431        C  0.48863290  0.55237808  0.00619807    -0.21900
C432        C  0.45219162  0.55429459  0.00469683    -0.21900
C433        C  0.07543105  0.92812693  0.98477210    -0.22900
C434        C  0.07719922  0.96249494  0.98543931    -0.22900
C435        C  0.35029150  0.93793576  0.99886029    -0.22900
C436        C  0.35207211  0.97221858  0.99544883    -0.22900
C437        C  0.02727649  0.88654972  0.99409671    -0.18300
C438        C  0.39485887  0.89191624  0.00202760    -0.18300
C439        C  0.40323477  0.51322619  0.99432376    -0.18300
C440        C  0.03410534  0.50838091  0.99674229    -0.18300
H441        H  0.99595503  0.82304213  0.01383468     0.14600
H442        H  0.42300507  0.82539320  0.99270013     0.14600
H443        H  0.50636092  0.57342016  0.01090208     0.14600
H444        H  0.43667628  0.57707122  0.00833609     0.14600
H445        H  0.09774075  0.91120973  0.98060225     0.12900
H446        H  0.10110581  0.97710539  0.98184163     0.12900
H447        H  0.32620440  0.92333160  0.99991915     0.12900
H448        H  0.32957135  0.98910596  0.99364525     0.12900
H449        H  0.46141417  0.92499896  0.00899007     0.26200
H450        H  0.46454232  0.97712232  0.98785769     0.26200
C451        C  0.06354703  0.53324716  0.99799494     0.80300
N452        N  0.07265345  0.54887438  0.03837443    -0.78000
C453        C  0.09923259  0.57185379  0.03922233     0.82700
N454        N  0.11364012  0.57933662  0.49962682    -0.78000
C455        C  0.10478607  0.56389873  0.45948243     0.82800
N456        N  0.07733643  0.54189621  0.45841926    -0.79700
O457        O  0.17485973  0.73469946  0.33581886    -0.80100
O458        O  0.18788606  0.67248037  0.15713127    -0.80100
O459        O  0.20137104  0.78501831  0.20078688    -0.80100
O460        O  0.20579311  0.62544761  0.29622470    -0.80100
O461        O  0.17827276  0.73719252  0.17791986    -0.80200
O462        O  0.17505104  0.66501398  0.33310815    -0.80100
O463        O  0.17642107  0.64287362  0.21711532    -0.80100
O464        O  0.16257791  0.75381559  0.26625213    -0.80100
C465        C  0.15615776  0.75202483  0.30882616     1.09600
C466        C  0.16992876  0.64991130  0.17598028     1.09500
C467        C  0.18049312  0.76933142  0.17398754     1.09600
C468        C  0.18137964  0.63422847  0.32420602     1.09500
O469        O  0.24945810  0.66603163  0.34108867    -0.80100
O470        O  0.24039899  0.72102990  0.13752090    -0.80200
O471        O  0.23200740  0.77339725  0.28621883    -0.80100
O472        O  0.24262851  0.61699463  0.20931289    -0.80100
O473        O  0.26004359  0.66782961  0.18767040    -0.80100
O474        O  0.25064913  0.73402743  0.33329203    -0.80100
O475        O  0.27160473  0.65900278  0.27279944    -0.80100
O476        O  0.25828079  0.74345451  0.20353802    -0.80100
Co477      Co  0.21219965  0.70017054  0.33061770     1.51500
Co478      Co  0.21964314  0.70382015  0.19157173     1.51700
Co479      Co  0.20965069  0.74543695  0.23676544     1.51600
Co480      Co  0.22349806  0.65334223  0.24375503     1.51500
O481        O  0.20830356  0.69779202  0.26076135    -1.42000
C482        C  0.27452207  0.65666424  0.31572303     1.09500
C483        C  0.26193099  0.74002140  0.15942531     1.09600
C484        C  0.25033340  0.76413032  0.32031251     1.09500
C485        C  0.26082718  0.63525243  0.18260418     1.09500
C486        C  0.10463044  0.62518821  0.08292227    -0.12200
C487        C  0.10960443  0.59026603  0.08137478     0.04800
C488        C  0.13061223  0.57491727  0.11529961    -0.07500
C489        C  0.14747905  0.59472733  0.14898454    -0.08300
C490        C  0.14430446  0.62986172  0.14875199    -0.02800
C491        C  0.12145755  0.64507243  0.11661690     0.04000
N492        N  0.11561684  0.68063274  0.11761679     0.66500
H493        H  0.08856072  0.63713962  0.05678428     0.15400
H494        H  0.16555034  0.58283059  0.17292272     0.15100
N495        N  0.13863133  0.53990195  0.11245441     0.74200
O496        O  0.11613587  0.69716601  0.08093784    -0.39200
O497        O  0.10784173  0.69528597  0.15493109    -0.39200
O498        O  0.16555287  0.52998264  0.09052585    -0.39900
O499        O  0.12158328  0.51945663  0.13647002    -0.40000
C500        C  0.10600291  0.58910680  0.38176913    -0.12200
C501        C  0.12420964  0.57313686  0.41752161     0.04800
C502        C  0.16163083  0.57239883  0.41714176    -0.07500
C503        C  0.18013566  0.59051290  0.38392909    -0.08300
C504        C  0.16186244  0.60871937  0.35031222    -0.02800
C505        C  0.12457545  0.60656666  0.34790687     0.04000
N506        N  0.10533137  0.62231003  0.31154730     0.66500
H507        H  0.07727874  0.58950074  0.38148119     0.15400
H508        H  0.20881781  0.59165450  0.38567777     0.15100
N509        N  0.18097540  0.55411258  0.45123314     0.74200
O510        O  0.10881874  0.61147606  0.27089934    -0.39200
O511        O  0.08039031  0.64239960  0.32081509    -0.39200
O512        O  0.17392686  0.52367454  0.45817195    -0.39900
O513        O  0.20604148  0.56787081  0.47317417    -0.40000
C514        C  0.30022750  0.64159759  0.11505988    -0.12200
C515        C  0.28420294  0.62007475  0.14662363     0.04800
C516        C  0.28895444  0.58503163  0.14053504    -0.07500
C517        C  0.30873863  0.57254092  0.10317373    -0.08300
C518        C  0.32322403  0.59426707  0.07071671    -0.02800
C519        C  0.31917304  0.62914204  0.07735018     0.04000
N520        N  0.33416011  0.65235933  0.04597329     0.66500
H521        H  0.29738656  0.66847511  0.11890567     0.15400
H522        H  0.31142223  0.54564901  0.09841102     0.15100
N523        N  0.27299266  0.56169515  0.17087548     0.74200
O524        O  0.36614311  0.66099126  0.05034491    -0.39200
O525        O  0.31443289  0.66718077  0.01749854    -0.39200
O526        O  0.24336263  0.54901947  0.16058238    -0.39900
O527        O  0.29093166  0.54965492  0.20350267    -0.40000
C528        C  0.34109570  0.63535557  0.40640254    -0.12200
C529        C  0.33962605  0.60029158  0.40428432     0.04800
C530        C  0.32411506  0.58451015  0.36561555    -0.07500
C531        C  0.30666731  0.60406640  0.33251306    -0.08300
C532        C  0.30440771  0.63912258  0.33781415    -0.02800
C533        C  0.32340275  0.65487980  0.37392863     0.04000
N534        N  0.32236380  0.69048002  0.38069921     0.66500
H535        H  0.35331345  0.64767340  0.43584653     0.15400
H536        H  0.29168350  0.59161346  0.30543592     0.15100
N537        N  0.32170776  0.54878381  0.36279301     0.74200
O538        O  0.29523595  0.70385749  0.39838710    -0.39200
O539        O  0.35105022  0.70663325  0.38089079    -0.39200
O540        O  0.29538643  0.53403449  0.37970715    -0.39900
O541        O  0.34716358  0.53181182  0.34666693    -0.40000
C542        C  0.15213889  0.82240396  0.07231101    -0.12200
C543        C  0.11614029  0.81460088  0.06880383     0.04800
C544        C  0.10070529  0.79391836  0.10190267    -0.07500
C545        C  0.12183117  0.78008782  0.13682050    -0.08300
C546        C  0.15825694  0.78710724  0.13975253    -0.02800
C547        C  0.17326729  0.80901180  0.10739024     0.04000
N548        N  0.21054998  0.81477001  0.10603305     0.66500
H549        H  0.16430786  0.83776779  0.04633167     0.15400
H550        H  0.10985752  0.76344035  0.16135638     0.15100
N551        N  0.06405954  0.78530679  0.09883605     0.74200
O552        O  0.23008240  0.79245455  0.08828377    -0.39200
O553        O  0.22185199  0.84447641  0.10870753    -0.39200
O554        O  0.04215428  0.78402426  0.58831740    -0.39900
O555        O  0.04673916  0.82353893  0.64055672    -0.40000
C556        C  0.13461275  0.80682584  0.33730088    -0.12200
C557        C  0.12813830  0.77246655  0.33032343     0.04800
C558        C  0.10170720  0.75679153  0.35631259    -0.07500
C559        C  0.08434314  0.77464910  0.39119887    -0.08300
C560        C  0.09301259  0.80807367  0.40071702    -0.02800
C561        C  0.11721239  0.82473061  0.37241243     0.04000
N562        N  0.12748418  0.85847956  0.38266197     0.66500
H563        H  0.15570383  0.81890478  0.31863110     0.15400
H564        H  0.06602493  0.76161889  0.41323177     0.15100
N565        N  0.09449333  0.72191385  0.35032152     0.74200
O566        O  0.15521844  0.86405617  0.40589915    -0.39200
O567        O  0.10679420  0.88241043  0.37325214    -0.39200
O568        O  0.10909956  0.70099188  0.37662100    -0.39900
O569        O  0.06815845  0.71307753  0.32627431    -0.40000
C570        C  0.31920195  0.81084845  0.11451105    -0.12200
C571        C  0.32716869  0.79817115  0.07061987     0.04800
C572        C  0.31972790  0.76421824  0.06036237    -0.07500
C573        C  0.30066935  0.74498214  0.09141074    -0.08300
C574        C  0.28963833  0.75837547  0.13377452    -0.02800
C575        C  0.30067136  0.79124006  0.14627885     0.04000
N576        N  0.28992419  0.80655945  0.18862422     0.66500
H577        H  0.32451817  0.83693091  0.12274330     0.15400
H578        H  0.29295718  0.71986427  0.08118967     0.15100
N579        N  0.32981495  0.74947172  0.01726828     0.74200
O580        O  0.31285617  0.81170240  0.21953234    -0.39200
O581        O  0.26122538  0.82285980  0.19004743    -0.39200
O582        O  0.36218199  0.74657636  0.00718374    -0.39900
O583        O  0.30653142  0.73777961  0.99029287    -0.40000
C584        C  0.32263370  0.81457133  0.38145775    -0.12200
C585        C  0.30310029  0.82793022  0.41833450     0.04800
C586        C  0.26596134  0.82416352  0.41820727    -0.07500
C587        C  0.24938756  0.80516796  0.38363126    -0.08300
C588        C  0.26915017  0.78915451  0.34911420    -0.02800
C589        C  0.30625535  0.79450926  0.34719342     0.04000
N590        N  0.32794961  0.77885100  0.31247362     0.66500
H591        H  0.35123472  0.81695452  0.38180892     0.15400
H592        H  0.22097547  0.80132437  0.38526058     0.15100
N593        N  0.24492030  0.83790937  0.45457161     0.74200
O594        O  0.35570595  0.79323047  0.29900453    -0.39200
O595        O  0.32165223  0.74938102  0.29848466    -0.39200
O596        O  0.23611837  0.86846680  0.45388407    -0.39900
O597        O  0.23009313  0.81853434  0.48241607    -0.40000
C598        C  0.36670372  0.86721964  0.50174555     0.80300
N599        N  0.35901864  0.84960230  0.54040827    -0.78000
C600        C  0.33303208  0.82596995  0.53929565     0.82700
N601        N  0.31676784  0.81760956  0.99301214    -0.78000
C602        C  0.32275057  0.83739211  0.95658538     0.82800
N603        N  0.34802718  0.86148636  0.95951535    -0.79700
C604        C  0.04931336  0.85843026  0.49215485     0.80300
N605        N  0.06171495  0.84496220  0.95034661    -0.78000
C606        C  0.08680816  0.82056641  0.94770736     0.82700
N607        N  0.10412291  0.81079424  0.98632900    -0.78000
C608        C  0.09315340  0.82427500  0.52557674     0.82800
N609        N  0.06719948  0.84776793  0.52996597    -0.79700
C610        C  0.37513674  0.53876080  0.48799322     0.80300
N611        N  0.37008919  0.55539171  0.95027506    -0.78000
C612        C  0.34781544  0.58219042  0.94818251     0.82700
N613        N  0.33326823  0.59465566  0.98741365    -0.78000
C614        C  0.33719263  0.57637183  0.52625297     0.82800
N615        N  0.35901797  0.54939702  0.52713389    -0.79700
N616        N  0.46135196  0.89849476  0.50455671    -0.36600
N617        N  0.01769239  0.94751383  0.49854212    -0.57100
N618        N  0.46641882  0.50210732  0.49799375    -0.36600
N619        N  0.40995687  0.95237392  0.49770413    -0.57100
C620        C  0.48935469  0.87793086  0.49664974     0.27000
C621        C  0.43138042  0.88030192  0.49802057     0.27000
C622        C  0.49574775  0.52162329  0.49670487     0.27000
C623        C  0.43782302  0.52212894  0.49220700     0.27600
C624        C  0.03667426  0.91903487  0.49243586     0.35600
C625        C  0.04037942  0.97335594  0.49314442     0.35600
C626        C  0.38707308  0.92680375  0.50431862     0.35600
C627        C  0.39086834  0.98109926  0.50035974     0.35600
C628        C  0.47699087  0.84599450  0.48599946    -0.21900
C629        C  0.44052522  0.84749500  0.48691521    -0.21900
C630        C  0.48551408  0.55476583  0.49119808    -0.21900
C631        C  0.44913066  0.55511484  0.48833035    -0.21900
C632        C  0.07182873  0.92687323  0.48382646    -0.22900
C633        C  0.07418946  0.96121371  0.48454339    -0.22900
C634        C  0.35313743  0.93932950  0.51071901    -0.22900
C635        C  0.35548826  0.97363629  0.50809738    -0.22900
C636        C  0.02341566  0.88598040  0.49625908    -0.18300
C637        C  0.39600934  0.89224554  0.50232448    -0.18300
C638        C  0.40175743  0.51192300  0.49071018    -0.18300
C639        C  0.03030626  0.50988254  0.49686661    -0.18300
H640        H  0.99149351  0.82302159  0.51784371     0.14600
H641        H  0.42278143  0.82677726  0.47988909     0.14600
H642        H  0.50248235  0.57648851  0.48888167     0.14600
H643        H  0.43293256  0.57730742  0.48375479     0.14600
H644        H  0.09366228  0.90965166  0.47802965     0.12900
H645        H  0.09811890  0.97551738  0.47941074     0.12900
H646        H  0.32912183  0.92522136  0.51623343     0.12900
H647        H  0.33349076  0.99102386  0.51113092     0.12900
H648        H  0.46282568  0.92320510  0.51549256     0.26200
H649        H  0.46666648  0.97768811  0.51148770     0.26200
C650        C  0.05954217  0.53482260  0.49781209     0.80300
N651        N  0.06902124  0.55026605  0.53811483    -0.78000
C652        C  0.09605403  0.57273892  0.53893987     0.82700
N653        N  0.11680569  0.57869054  0.00016224    -0.78000
C654        C  0.10840806  0.56317672  0.96000425     0.82800
N655        N  0.08135647  0.54067690  0.95868427    -0.79700
O656        O  0.17673848  0.73412381  0.83635153    -0.80100
O657        O  0.17688204  0.67529675  0.65900276    -0.80100
O658        O  0.19081818  0.78372274  0.70581132    -0.80100
O659        O  0.20792409  0.62520268  0.79546995    -0.80100
O660        O  0.18339732  0.73760799  0.66283136    -0.80200
O661        O  0.17867888  0.66498186  0.83332706    -0.80100
O662        O  0.17363490  0.64313831  0.71786521    -0.80100
O663        O  0.15744131  0.74414843  0.76603264    -0.80100
C664        C  0.15386605  0.74626792  0.80927285     1.09600
C665        C  0.16208895  0.65156096  0.67857111     1.09500
C666        C  0.17838418  0.76930449  0.67009603     1.09600
C667        C  0.18454770  0.63420745  0.82453833     1.09500
O668        O  0.25407075  0.66739114  0.83781055    -0.80100
O669        O  0.25101743  0.72219504  0.65707670    -0.80200
O670        O  0.22249264  0.77456699  0.79288445    -0.80100
O671        O  0.23932176  0.61450943  0.70664552    -0.80100
O672        O  0.24451917  0.66122588  0.66584106    -0.80100
O673        O  0.25232798  0.73585030  0.83064400    -0.80100
O674        O  0.27289701  0.65507348  0.76800763    -0.80100
O675        O  0.25587608  0.75468922  0.71624871    -0.80100
Co676      Co  0.21535024  0.70059482  0.83032269     1.51500
Co677      Co  0.21386408  0.69960070  0.69042552     1.51700
Co678      Co  0.20609428  0.74589558  0.74017525     1.51600
Co679      Co  0.22371330  0.65257601  0.74174373     1.51500
O680        O  0.21477583  0.69956015  0.76146615    -1.42000
C681        C  0.27723524  0.65499059  0.81136235     1.09500
C682        C  0.26600068  0.74653725  0.67614144     1.09600
C683        C  0.24689107  0.76625563  0.82073902     1.09500
C684        C  0.25168490  0.62990304  0.67212277     1.09500
C685        C  0.10442419  0.62727732  0.57815513    -0.12200
C686        C  0.10522332  0.59228296  0.58083968     0.04800
C687        C  0.11815861  0.57724021  0.62121503    -0.07500
C688        C  0.13253904  0.59744807  0.65676094    -0.08300
C689        C  0.13463904  0.63251984  0.65220305    -0.02800
C690        C  0.11832692  0.64753872  0.61343137     0.04000
N691        N  0.11794881  0.68330254  0.60784653     0.66500
H692        H  0.09384640  0.63897868  0.54754313     0.15400
H693        H  0.14549587  0.58540364  0.68552447     0.15100
N694        N  0.12067129  0.54154103  0.62429287     0.74200
O695        O  0.12578739  0.69590603  0.56965903    -0.39200
O696        O  0.10928280  0.70238710  0.64087955    -0.39200
O697        O  0.14170803  0.52546542  0.59852528    -0.39900
O698        O  0.10439103  0.52640733  0.65552931    -0.40000
C699        C  0.11028378  0.58657287  0.88121761    -0.12200
C700        C  0.12840421  0.57260195  0.91860467     0.04800
C701        C  0.16580498  0.57462703  0.92050623    -0.07500
C702        C  0.18399977  0.59299775  0.88731337    -0.08300
C703        C  0.16563136  0.60895426  0.85174238    -0.02800
C704        C  0.12865292  0.60458496  0.84772698     0.04000
N705        N  0.10940602  0.61885040  0.81029199     0.66500
H706        H  0.08162295  0.58523110  0.87945817     0.15400
H707        H  0.21245626  0.59605802  0.89043485     0.15100
N708        N  0.18536674  0.55918528  0.95706024     0.74200
O709        O  0.11059066  0.60475540  0.77129416    -0.39200
O710        O  0.08606958  0.64090480  0.81804184    -0.39200
O711        O  0.17921176  0.52918033  0.96772411    -0.39900
O712        O  0.20959679  0.57510037  0.97782083    -0.40000
C713        C  0.29644711  0.63571364  0.61175945    -0.12200
C714        C  0.27633178  0.61403547  0.63895367     0.04800
C715        C  0.28040884  0.57907766  0.63280633    -0.07500
C716        C  0.30240564  0.56672389  0.59753408    -0.08300
C717        C  0.32000408  0.58888959  0.56826481    -0.02800
C718        C  0.31795486  0.62357462  0.57679948     0.04000
N719        N  0.33745816  0.64691396  0.54997674     0.66500
H720        H  0.29530390  0.66263061  0.61708919     0.15400
H721        H  0.30404789  0.53991284  0.59128766     0.15100
N722        N  0.26108272  0.55599656  0.66010361     0.74200
O723        O  0.37005009  0.65122082  0.55787723    -0.39200
O724        O  0.32115228  0.66684463  0.52387629    -0.39200
O725        O  0.22874653  0.55065043  0.65162319    -0.39900
O726        O  0.27714568  0.53837216  0.68937223    -0.40000
C727        C  0.34386259  0.63365011  0.90266708    -0.12200
C728        C  0.33956707  0.59891288  0.90435457     0.04800
C729        C  0.32179567  0.58234846  0.86798074    -0.07500
C730        C  0.30558688  0.60126300  0.83301352    -0.08300
C731        C  0.30652176  0.63658537  0.83417689    -0.02800
C732        C  0.32731061  0.65265231  0.86857762     0.04000
N733        N  0.32945977  0.68840505  0.87226355     0.66500
H734        H  0.35764352  0.64652115  0.93046890     0.15400
H735        H  0.28900590  0.58850716  0.80785063     0.15100
N736        N  0.31604703  0.54697378  0.86936029     0.74200
O737        O  0.30282318  0.70480272  0.88604338    -0.39200
O738        O  0.35962372  0.70185013  0.87526239    -0.39200
O739        O  0.28948214  0.53559092  0.89009646    -0.39900
O740        O  0.33919649  0.52703753  0.85369179    -0.40000
C741        C  0.15140957  0.81237465  0.56094187    -0.12200
C742        C  0.11444813  0.81366258  0.56545122     0.04800
C743        C  0.09881637  0.80349043  0.60687069    -0.07500
C744        C  0.12035782  0.79079174  0.64220080    -0.08300
C745        C  0.15721166  0.78804861  0.63652542    -0.02800
C746        C  0.17280284  0.79957218  0.59596787     0.04000
N747        N  0.21022838  0.79733715  0.58921788     0.66500
H748        H  0.16368193  0.82052917  0.52943805     0.15400
H749        H  0.10816002  0.78147306  0.67312915     0.15100
N750        N  0.06113474  0.80365292  0.61215952     0.74200
O751        O  0.22417858  0.76932566  0.57959855    -0.39200
O752        O  0.22799885  0.82378435  0.58444123    -0.39200
O753        O  0.05473702  0.75946759  0.07651364    -0.39900
O754        O  0.04084128  0.80560990  0.11341990    -0.40000
C755        C  0.13256238  0.80157289  0.83544254    -0.12200
C756        C  0.12611512  0.76697113  0.83096582     0.04800
C757        C  0.10183654  0.75192561  0.86085249    -0.07500
C758        C  0.08677153  0.77066634  0.89676889    -0.08300
C759        C  0.09559593  0.80440648  0.90351113    -0.02800
C760        C  0.11743946  0.82038211  0.87150311     0.04000
N761        N  0.12781943  0.85450725  0.87851774     0.66500
H762        H  0.15219399  0.81325025  0.81386401     0.15400
H763        H  0.07002230  0.75821721  0.92136683     0.15100
N764        N  0.09468236  0.71687589  0.85764464     0.74200
O765        O  0.15640355  0.86110753  0.89938024    -0.39200
O766        O  0.10661203  0.87793645  0.86868342    -0.39200
O767        O  0.11346292  0.69659150  0.88026316    -0.39900
O768        O  0.06532990  0.70733340  0.84130445    -0.40000
C769        C  0.31323447  0.82024042  0.62083038    -0.12200
C770        C  0.32456102  0.80509180  0.57964846     0.04800
C771        C  0.32184187  0.76996809  0.57463905    -0.07500
C772        C  0.30641013  0.75099440  0.60932622    -0.08300
C773        C  0.29192521  0.76629256  0.64889350    -0.02800
C774        C  0.29631599  0.80135238  0.65496483     0.04000
N775        N  0.27959145  0.81889055  0.69209209     0.66500
H776        H  0.31435063  0.84728660  0.62461680     0.15400
H777        H  0.30334344  0.72427496  0.60347762     0.15100
N778        N  0.33271205  0.75339599  0.53313918     0.74200
O779        O  0.29842923  0.83189204  0.72341013    -0.39200
O780        O  0.24776180  0.82820934  0.68774871    -0.39200
O781        O  0.36398230  0.74236820  0.52956047    -0.39900
O782        O  0.30991934  0.74560015  0.50299658    -0.40000
C783        C  0.32188547  0.81467350  0.87707045    -0.12200
C784        C  0.30343250  0.82968665  0.91368983     0.04800
C785        C  0.26610013  0.82851463  0.91395438    -0.07500
C786        C  0.24800644  0.81018855  0.88011661    -0.08300
C787        C  0.26659170  0.79202665  0.84659835    -0.02800
C788        C  0.30383318  0.79532585  0.84379154     0.04000
N789        N  0.32378326  0.77837499  0.80868760     0.66500
H790        H  0.35061086  0.81509414  0.87690552     0.15400
H791        H  0.21943253  0.80788213  0.88235039     0.15100
N792        N  0.24639599  0.84342916  0.95071721     0.74200
O793        O  0.34454857  0.79486852  0.78384076    -0.39200
O794        O  0.32571532  0.74679311  0.80805335    -0.39200
O795        O  0.23659092  0.87362857  0.94793246    -0.39900
O796        O  0.23310417  0.82501411  0.98100916    -0.40000
C797        C  0.86625577  0.36809164  0.00181320     0.80300
N798        N  0.85987257  0.34948407  0.04008025    -0.78000
C799        C  0.83346879  0.32628674  0.03938287     0.82700
N800        N  0.81334917  0.32049488  0.50531690    -0.78000
C801        C  0.82000914  0.33604530  0.46510022     0.82800
N802        N  0.84611430  0.35944555  0.46351597    -0.79700
C803        C  0.55047168  0.35670898  0.99539332     0.80300
N804        N  0.56123774  0.34748632  0.45086099    -0.78000
C805        C  0.58616214  0.32308900  0.44725433     0.82700
N806        N  0.60436274  0.31325242  0.48506859    -0.78000
C807        C  0.59370843  0.32235650  0.02980258     0.82800
N808        N  0.56839675  0.34653715  0.03343013    -0.79700
C809        C  0.87705332  0.04103457  0.99355271     0.80300
N810        N  0.87075164  0.05640364  0.44931335    -0.78000
C811        C  0.84897300  0.08352029  0.44725782     0.82700
N812        N  0.83335438  0.09512160  0.48605963    -0.78000
C813        C  0.84321187  0.08157395  0.03366996     0.82800
N814        N  0.86396966  0.05363296  0.03373714    -0.79700
N815        N  0.96087054  0.39903213  0.99661815    -0.36600
N816        N  0.51914051  0.44615618  0.99981485    -0.57100
N817        N  0.96785346  0.00165217  0.99354546    -0.36600
N818        N  0.90989179  0.45317229  0.99850872    -0.57100
C819        C  0.98904773  0.37847441  0.00256480     0.27000
C820        C  0.93114701  0.38124392  0.00555418     0.27000
C821        C  0.99766207  0.02039149  0.99788150     0.27000
C822        C  0.93957278  0.02245079  0.99736602     0.27600
C823        C  0.53824819  0.41751578  0.99608351     0.35600
C824        C  0.54213747  0.47189798  0.99584709     0.35600
C825        C  0.88676607  0.42734489  0.99543073     0.35600
C826        C  0.89095320  0.48158067  0.99217099     0.35600
C827        C  0.97718063  0.34698187  0.01493440    -0.21900
C828        C  0.94077357  0.34868922  0.01672568    -0.21900
C829        C  0.98809425  0.05377434  0.00388616    -0.21900
C830        C  0.95161713  0.05509298  0.00351086    -0.21900
C831        C  0.57378746  0.42516021  0.99018431    -0.22900
C832        C  0.57626123  0.45949422  0.99031569    -0.22900
C833        C  0.85275723  0.43960168  0.98811056    -0.22900
C834        C  0.85544122  0.47385006  0.98579560    -0.22900
C835        C  0.52463667  0.38446830  0.99874661    -0.18300
C836        C  0.89564216  0.39302825  0.00134198    -0.18300
C837        C  0.90319454  0.01324112  0.99451420    -0.18300
C838        C  0.53091354  0.01032582  0.99783632    -0.18300
H839        H  0.49161503  0.32076442  0.01251606     0.14600
H840        H  0.92356430  0.32797952  0.02471012     0.14600
H841        H  0.00553307  0.07510882  0.00777858     0.14600
H842        H  0.93580207  0.07767039  0.00728307     0.14600
H843        H  0.59577401  0.40781970  0.98640213     0.12900
H844        H  0.60049181  0.47362137  0.98673291     0.12900
H845        H  0.82838134  0.42554132  0.98522739     0.12900
H846        H  0.83359496  0.49112447  0.98064819     0.12900
H847        H  0.96217490  0.42325110  0.98460797     0.26200
H848        H  0.96717520  0.47770342  0.98228339     0.26200
C849        C  0.55976752  0.03581267  0.99716802     0.80300
N850        N  0.56955518  0.05251577  0.03654019    -0.78000
C851        C  0.59592406  0.07578020  0.03536167     0.82700
N852        N  0.61768624  0.07697922  0.50070515    -0.78000
C853        C  0.60813776  0.06116037  0.46114108     0.82800
N854        N  0.58050439  0.03936769  0.46118966    -0.79700
O855        O  0.67325513  0.23321740  0.33709612    -0.80100
O856        O  0.68947851  0.17377445  0.15635824    -0.80100
O857        O  0.69824072  0.28549602  0.20550741    -0.80100
O858        O  0.70402086  0.12469103  0.29475169    -0.80100
O859        O  0.67843199  0.23727513  0.17893381    -0.80200
O860        O  0.67356548  0.16362799  0.33340263    -0.80100
O861        O  0.67543274  0.14349867  0.21462295    -0.80100
O862        O  0.65941004  0.25101383  0.26741996    -0.80100
C863        C  0.65349817  0.24950028  0.31007896     1.09600
C864        C  0.66997507  0.15160580  0.17352507     1.09500
C865        C  0.67909038  0.26956416  0.17691482     1.09600
C866        C  0.67997298  0.13301561  0.32353057     1.09500
O867        O  0.74773672  0.16441742  0.34211039    -0.80100
O868        O  0.74197650  0.22314614  0.14119297    -0.80200
O869        O  0.72768702  0.27274673  0.29103721    -0.80100
O870        O  0.74221364  0.11765575  0.20877692    -0.80100
O871        O  0.76086071  0.16877333  0.18959718    -0.80100
O872        O  0.74924835  0.23233053  0.33393913    -0.80100
O873        O  0.77007011  0.15863254  0.27387769    -0.80100
O874        O  0.75673218  0.24588589  0.20827291    -0.80100
Co875      Co  0.71067914  0.19871903  0.33151864     1.51500
Co876      Co  0.72017372  0.20448524  0.19345641     1.51700
Co877      Co  0.70726338  0.24528490  0.23958692     1.51600
Co878      Co  0.72224605  0.15332678  0.24336685     1.51500
O879        O  0.70692024  0.19719040  0.26168405    -1.42000
C880        C  0.77292626  0.15562832  0.31668163     1.09500
C881        C  0.76184700  0.24294618  0.16436844     1.09600
C882        C  0.74750918  0.26286707  0.32335077     1.09500
C883        C  0.76213944  0.13617861  0.18458024     1.09500
C884        C  0.61023123  0.13030994  0.07251137    -0.12200
C885        C  0.60736359  0.09535614  0.07638736     0.04800
C886        C  0.62037550  0.07985265  0.11634599    -0.07500
C887        C  0.63803816  0.09914229  0.15015455    -0.08300
C888        C  0.64330520  0.13378538  0.14445976    -0.02800
C889        C  0.62741770  0.14966458  0.10640013     0.04000
N890        N  0.62855444  0.18539981  0.10185260     0.66500
H891        H  0.59964135  0.14257184  0.04233730     0.15400
H892        H  0.65021125  0.08649458  0.17900015     0.15100
N893        N  0.61952000  0.04419672  0.12055619     0.74200
O894        O  0.63689361  0.19830307  0.06406605    -0.39200
O895        O  0.61774686  0.20404188  0.13425681    -0.39200
O896        O  0.64073443  0.02616102  0.09760315    -0.39900
O897        O  0.60049278  0.03102057  0.15085584    -0.40000
C898        C  0.60674469  0.08700397  0.38417953    -0.12200
C899        C  0.62625308  0.07058447  0.41835935     0.04800
C900        C  0.66364682  0.07015225  0.41599150    -0.07500
C901        C  0.68079249  0.08846788  0.38178236    -0.08300
C902        C  0.66128379  0.10708033  0.34976891    -0.02800
C903        C  0.62391016  0.10519966  0.34978570     0.04000
N904        N  0.60317086  0.12231562  0.31586270     0.66500
H905        H  0.57805480  0.08733176  0.38585258     0.15400
H906        H  0.70949542  0.08973484  0.38179039     0.15100
N907        N  0.68439526  0.05239579  0.44934425     0.74200
O908        O  0.61088630  0.11926397  0.27387824    -0.39200
O909        O  0.57458850  0.13673249  0.32703776    -0.39200
O910        O  0.67627479  0.02282520  0.46002364    -0.39900
O911        O  0.71184923  0.06556883  0.46659311    -0.40000
C912        C  0.80487983  0.14275997  0.12078135    -0.12200
C913        C  0.78775225  0.12120773  0.15128723     0.04800
C914        C  0.79287098  0.08617107  0.14577527    -0.07500
C915        C  0.81283097  0.07362421  0.10867132    -0.08300
C916        C  0.82781980  0.09534638  0.07664845    -0.02800
C917        C  0.82457824  0.13025963  0.08380414     0.04000
N918        N  0.84079936  0.15344574  0.05339812     0.66500
H919        H  0.80204184  0.16966705  0.12453996     0.15400
H920        H  0.81527451  0.04672581  0.10376507     0.15100
N921        N  0.77725250  0.06293000  0.17659234     0.74200
O922        O  0.87313083  0.16062991  0.05846157    -0.39200
O923        O  0.82178147  0.17044586  0.02645223    -0.39200
O924        O  0.75248470  0.04410901  0.16280094    -0.39900
O925        O  0.79123829  0.05813105  0.21544926    -0.40000
C926        C  0.84306777  0.13578336  0.40393565    -0.12200
C927        C  0.84093044  0.10072393  0.40390074     0.04800
C928        C  0.82312097  0.08415579  0.36762138    -0.07500
C929        C  0.80442805  0.10304521  0.33494453    -0.08300
C930        C  0.80313070  0.13823765  0.33828890    -0.02800
C931        C  0.82402928  0.15469362  0.37197558     0.04000
N932        N  0.82356075  0.19042828  0.37723401     0.66500
H933        H  0.85667378  0.14868682  0.43185062     0.15400
H934        H  0.78791332  0.09010788  0.30988363     0.15100
N935        N  0.81954628  0.04848790  0.36741053     0.74200
O936        O  0.79674942  0.20452631  0.39468268    -0.39200
O937        O  0.85247979  0.20619277  0.37653154    -0.39200
O938        O  0.79250127  0.03527942  0.38481319    -0.39900
O939        O  0.84484528  0.03014625  0.35386809    -0.40000
C940        C  0.65143735  0.31556739  0.06925155    -0.12200
C941        C  0.61458088  0.31213477  0.07028954     0.04800
C942        C  0.59864958  0.29739270  0.10868530    -0.07500
C943        C  0.61995520  0.28481026  0.14436381    -0.08300
C944        C  0.65706524  0.28713417  0.14249816    -0.02800
C945        C  0.67273135  0.30338099  0.10492736     0.04000
N946        N  0.71030381  0.30484940  0.10005138     0.66500
H947        H  0.66386848  0.32685036  0.03976554     0.15400
H948        H  0.60758350  0.27222743  0.17285830     0.15100
N949        N  0.56111127  0.29308431  0.11036366     0.74200
O950        O  0.72608536  0.27990995  0.08252099    -0.39200
O951        O  0.72519561  0.33311681  0.09954222    -0.39200
O952        O  0.54497227  0.29111922  0.58945735    -0.39900
O953        O  0.55083507  0.32963105  0.64286634    -0.40000
C954        C  0.63038503  0.30453573  0.33454582    -0.12200
C955        C  0.62544121  0.26969100  0.33163219     0.04800
C956        C  0.60169702  0.25426012  0.36184500    -0.07500
C957        C  0.58637860  0.27292826  0.39748800    -0.08300
C958        C  0.59398003  0.30702679  0.40295935    -0.02800
C959        C  0.61463055  0.32337020  0.37000842     0.04000
N960        N  0.62332534  0.35804791  0.37556475     0.66500
H961        H  0.64932383  0.31652690  0.31227566     0.15400
H962        H  0.57033016  0.26030716  0.42270031     0.15100
N963        N  0.59508615  0.21907921  0.35871709     0.74200
O964        O  0.65287395  0.36636786  0.39261616    -0.39200
O965        O  0.60038838  0.38028819  0.36708176    -0.39200
O966        O  0.61016500  0.19944277  0.38640016    -0.39900
O967        O  0.56916432  0.20877815  0.33500781    -0.40000
C968        C  0.81649931  0.31625536  0.12092272    -0.12200
C969        C  0.82656237  0.30337591  0.07790739     0.04800
C970        C  0.82137197  0.26898559  0.06826461    -0.07500
C971        C  0.80285764  0.24910818  0.09905573    -0.08300
C972        C  0.78944004  0.26253906  0.14020085    -0.02800
C973        C  0.79800189  0.29618727  0.15223638     0.04000
N974        N  0.78470747  0.31170995  0.19320812     0.66500
H975        H  0.81988923  0.34273591  0.12846697     0.15400
H976        H  0.79706708  0.22342773  0.08924305     0.15100
N977        N  0.83249561  0.25450718  0.02547694     0.74200
O978        O  0.80637873  0.32081247  0.22399247    -0.39200
O979        O  0.75438200  0.32510705  0.19241234    -0.39200
O980        O  0.86507707  0.25047701  0.01744903    -0.39900
O981        O  0.80978763  0.24365463  0.99704890    -0.40000
C982        C  0.81981466  0.31285620  0.38498493    -0.12200
C983        C  0.80070070  0.32480513  0.42314060     0.04800
C984        C  0.76370207  0.32010744  0.42402156    -0.07500
C985        C  0.74692099  0.30168127  0.38907284    -0.08300
C986        C  0.76630146  0.28728456  0.35301428    -0.02800
C987        C  0.80319448  0.29347655  0.35017364     0.04000
N988        N  0.82437395  0.27959792  0.31358736     0.66500
H989        H  0.84830205  0.31611975  0.38428412     0.15400
H990        H  0.71864827  0.29718236  0.39134175     0.15100
N991        N  0.74294886  0.33258438  0.46141441     0.74200
O992        O  0.85093352  0.29546390  0.29929839    -0.39200
O993        O  0.81885451  0.25028845  0.29840825    -0.39200
O994        O  0.73570676  0.36347278  0.46407813    -0.39900
O995        O  0.72638282  0.31222599  0.48608865    -0.40000
C996        C  0.86455633  0.36797043  0.50238087     0.80300
N997        N  0.85733600  0.35224197  0.54271214    -0.78000
C998        C  0.83184660  0.32819786  0.54410429     0.82700
N999        N  0.81317651  0.32265839  0.00127170    -0.78000
C1000       C  0.81889038  0.34099473  0.96338819     0.82800
N1001       N  0.84604513  0.36328240  0.96321385    -0.79700
C1002       C  0.55436610  0.36173436  0.49246653     0.80300
N1003       N  0.55787766  0.34276902  0.95368219    -0.78000
C1004       C  0.58292174  0.31839350  0.95005719     0.82700
N1005       N  0.60096035  0.30846950  0.98806006    -0.78000
C1006       C  0.59759295  0.32743717  0.52668740     0.82800
N1007       N  0.57244799  0.35172305  0.53040074    -0.79700
C1008       C  0.87656852  0.04126211  0.49037898     0.80300
N1009       N  0.86894306  0.05618449  0.95307825    -0.78000
C1010       C  0.84794511  0.08399342  0.95291764     0.82700
N1011       N  0.83550175  0.09653652  0.99324956    -0.78000
C1012       C  0.83902779  0.08022038  0.52700821     0.82800
N1013       N  0.86060232  0.05303602  0.52910066    -0.79700
N1014       N  0.95877492  0.39986315  0.49636147    -0.36600
N1015       N  0.51986817  0.44986280  0.49852590    -0.57100
N1016       N  0.96621063  0.00135386  0.49408006    -0.36600
N1017       N  0.90685563  0.45364085  0.49726850    -0.57100
C1018       C  0.98712247  0.37957029  0.50285744     0.27000
C1019       C  0.92916481  0.38179877  0.50476173     0.27000
C1020       C  0.99596955  0.01956159  0.50177913     0.27000
C1021       C  0.93816196  0.02211936  0.49958804     0.27600
C1022       C  0.54020545  0.42195257  0.49709203     0.35600
C1023       C  0.54207288  0.47642676  0.49939496     0.35600
C1024       C  0.88427112  0.42740921  0.49342812     0.35600
C1025       C  0.88759053  0.48180649  0.49021084     0.35600
C1026       C  0.97547482  0.34794285  0.51490133    -0.21900
C1027       C  0.93901725  0.34932446  0.51608789    -0.21900
C1028       C  0.98658049  0.05254945  0.51159159    -0.21900
C1029       C  0.95018626  0.05417254  0.51016223    -0.21900
C1030       C  0.57575250  0.43089131  0.49700585    -0.22900
C1031       C  0.57691131  0.46530392  0.49877446    -0.22900
C1032       C  0.85026752  0.43911413  0.48464720    -0.22900
C1033       C  0.85239550  0.47347764  0.48241908    -0.22900
C1034       C  0.52763406  0.38845147  0.49608339    -0.18300
C1035       C  0.89355723  0.39324530  0.50018190    -0.18300
C1036       C  0.90205627  0.01345873  0.49366573    -0.18300
C1037       C  0.53380255  0.00821926  0.50140317    -0.18300
H1038       H  0.49714045  0.32303460  0.50455592     0.14600
H1039       H  0.92185634  0.32851154  0.52384591     0.14600
H1040       H  0.00403886  0.07347794  0.51853998     0.14600
H1041       H  0.93439481  0.07652883  0.51610900     0.14600
H1042       H  0.59858277  0.41436575  0.49589518     0.12900
H1043       H  0.60070646  0.48037309  0.49900114     0.12900
H1044       H  0.82630679  0.42453758  0.48064503     0.12900
H1045       H  0.83040829  0.49042683  0.47637467     0.12900
H1046       H  0.95985285  0.42415287  0.48458552     0.26200
H1047       H  0.96382990  0.47863098  0.48191068     0.26200
C1048       C  0.56325461  0.03287765  0.50115025     0.80300
N1049       N  0.57335034  0.04876395  0.54088564    -0.78000
C1050       C  0.60063858  0.07097956  0.54058111     0.82700
N1051       N  0.61252001  0.08171125  0.99523666    -0.78000
C1052       C  0.60342813  0.06509761  0.95618122     0.82800
N1053       N  0.57670303  0.04232564  0.95692798    -0.79700
O1054       O  0.67279050  0.23427300  0.83874020    -0.80100
O1055       O  0.67887825  0.17858573  0.66060685    -0.80100
O1056       O  0.69046376  0.28653964  0.71087425    -0.80100
O1057       O  0.70727401  0.12650961  0.79643502    -0.80100
O1058       O  0.68578082  0.24119940  0.66569836    -0.80200
O1059       O  0.67552443  0.16534635  0.83240285    -0.80100
O1060       O  0.67559534  0.14531762  0.71821355    -0.80100
O1061       O  0.65602649  0.24548345  0.76777551    -0.80100
C1062       C  0.65091064  0.24688746  0.81076429     1.09600
C1063       C  0.66468759  0.15390659  0.67877937     1.09500
C1064       C  0.67995306  0.27266192  0.67374749     1.09600
C1065       C  0.68208767  0.13476066  0.82333060     1.09500
O1066       O  0.75106919  0.16840855  0.84226119    -0.80100
O1067       O  0.75366588  0.22573200  0.66386928    -0.80200
O1068       O  0.71989701  0.27617778  0.79912664    -0.80100
O1069       O  0.74170959  0.11781439  0.70881784    -0.80100
O1070       O  0.74603239  0.16498964  0.66904712    -0.80100
O1071       O  0.74814562  0.23717013  0.83870974    -0.80100
O1072       O  0.77266526  0.15785610  0.77321308    -0.80100
O1073       O  0.75564550  0.25854983  0.72309809    -0.80100
Co1074     Co  0.71195364  0.20131007  0.83383687     1.51500
Co1075     Co  0.71507665  0.20282475  0.69411489     1.51700
Co1076     Co  0.70544719  0.24836008  0.74463421     1.51600
Co1077     Co  0.72460064  0.15511189  0.74451927     1.51500
O1078       O  0.71447354  0.20180960  0.76506344    -1.42000
C1079       C  0.77535505  0.15685022  0.81668223     1.09500
C1080       C  0.76736273  0.25047705  0.68367697     1.09600
C1081       C  0.74297664  0.26765109  0.82871778     1.09500
C1082       C  0.75361477  0.13368571  0.67442429     1.09500
C1083       C  0.60930065  0.12647753  0.57698146    -0.12200
C1084       C  0.61002661  0.09157465  0.58143624     0.04800
C1085       C  0.62331748  0.07761805  0.62230297    -0.07500
C1086       C  0.63736141  0.09875857  0.65699650    -0.08300
C1087       C  0.63888360  0.13377487  0.65113232    -0.02800
C1088       C  0.62309595  0.14768043  0.61127451     0.04000
N1089       N  0.62285964  0.18320333  0.60370661     0.66500
H1090       H  0.59880407  0.13737170  0.54576039     0.15400
H1091       H  0.65015620  0.08748608  0.68647186     0.15100
N1092       N  0.62668720  0.04208283  0.62659669     0.74200
O1093       O  0.63241980  0.19467098  0.56550593    -0.39200
O1094       O  0.61241748  0.20317718  0.63483251    -0.39200
O1095       O  0.65210836  0.02682510  0.60743989    -0.39900
O1096       O  0.60644520  0.02645474  0.65313033    -0.40000
C1097       C  0.60494068  0.09065804  0.87891366    -0.12200
C1098       C  0.62265039  0.07333942  0.91377462     0.04800
C1099       C  0.65996877  0.07128248  0.91304670    -0.07500
C1100       C  0.67910134  0.08936494  0.88046262    -0.08300
C1101       C  0.66150907  0.10897439  0.84773901    -0.02800
C1102       C  0.62399646  0.10813321  0.84539995     0.04000
N1103       N  0.60504643  0.12496924  0.80947508     0.66500
H1104       H  0.57624723  0.09199006  0.87918722     0.15400
H1105       H  0.70780795  0.08957139  0.88233090     0.15100
N1106       N  0.67863729  0.05211885  0.94678997     0.74200
O1107       O  0.61546474  0.12206928  0.76850985    -0.39200
O1108       O  0.57486038  0.13754282  0.81714627    -0.39200
O1109       O  0.67165401  0.02144619  0.95174704    -0.39900
O1110       O  0.70182043  0.06583970  0.97204758    -0.40000
C1111       C  0.79177256  0.13995581  0.60677979    -0.12200
C1112       C  0.77754533  0.11834801  0.63973435     0.04800
C1113       C  0.78710320  0.08408600  0.63815646    -0.07500
C1114       C  0.80897523  0.07203938  0.60252082    -0.08300
C1115       C  0.82124177  0.09371460  0.56831140    -0.02800
C1116       C  0.81334398  0.12818274  0.57170508     0.04000
N1117       N  0.82698703  0.15179783  0.53971220     0.66500
H1118       H  0.78619011  0.16662998  0.60771471     0.15400
H1119       H  0.81495189  0.04546062  0.60038489     0.15100
N1120       N  0.77398995  0.06112051  0.67120932     0.74200
O1121       O  0.85930314  0.15976984  0.54131214    -0.39200
O1122       O  0.80594248  0.16805509  0.51442057    -0.39200
O1123       O  0.74343582  0.04880780  0.66625771    -0.39900
O1124       O  0.79436432  0.05014130  0.70214024    -0.40000
C1125       C  0.84073422  0.13643368  0.90949835    -0.12200
C1126       C  0.83830926  0.10138786  0.90995840     0.04800
C1127       C  0.82155304  0.08468896  0.87283441    -0.07500
C1128       C  0.80489805  0.10348800  0.83810252    -0.08300
C1129       C  0.80442838  0.13878890  0.84021006    -0.02800
C1130       C  0.82381445  0.15516425  0.87541917     0.04000
N1131       N  0.82400198  0.19093174  0.87942924     0.66500
H1132       H  0.85369882  0.14955047  0.93772989     0.15400
H1133       H  0.78918817  0.09051528  0.81221175     0.15100
N1134       N  0.81725571  0.04909271  0.87310920     0.74200
O1135       O  0.79899008  0.20563047  0.90019579    -0.39200
O1136       O  0.85261479  0.20643444  0.87318600    -0.39200
O1137       O  0.79242787  0.03624909  0.89572875    -0.39900
O1138       O  0.83979580  0.03037740  0.85360110    -0.40000
C1139       C  0.65524918  0.31417875  0.56263224    -0.12200
C1140       C  0.61840597  0.31692255  0.56695436     0.04800
C1141       C  0.60227368  0.30844074  0.60877920    -0.07500
C1142       C  0.62321173  0.29605564  0.64487122    -0.08300
C1143       C  0.65989089  0.29164491  0.63939400    -0.02800
C1144       C  0.67604180  0.30136710  0.59825210     0.04000
N1145       N  0.71339748  0.29768219  0.59176351     0.66500
H1146       H  0.66777332  0.32121864  0.53083795     0.15400
H1147       H  0.61057000  0.28801487  0.67619008     0.15100
N1148       N  0.56458222  0.30987078  0.61377183     0.74200
O1149       O  0.72662711  0.26881398  0.58616243    -0.39200
O1150       O  0.73186912  0.32315141  0.58332379    -0.39200
O1151       O  0.54643153  0.27086742  0.08567539    -0.39900
O1152       O  0.54232318  0.31340768  0.13330307    -0.40000
C1153       C  0.62864673  0.30176737  0.83721370    -0.12200
C1154       C  0.62241462  0.26720903  0.83150842     0.04800
C1155       C  0.59780798  0.25158834  0.86035439    -0.07500
C1156       C  0.58275741  0.26948654  0.89709763    -0.08300
C1157       C  0.59156487  0.30309556  0.90523435    -0.02800
C1158       C  0.61325650  0.31982834  0.87379150     0.04000
N1159       N  0.62314537  0.35397981  0.88184251     0.66500
H1160       H  0.64838374  0.31391979  0.81630387     0.15400
H1161       H  0.56593635  0.25649932  0.92107303     0.15100
N1162       N  0.59033533  0.21670258  0.85511365     0.74200
O1163       O  0.65116110  0.36060388  0.90396541    -0.39200
O1164       O  0.60168230  0.37727192  0.87230832    -0.39200
O1165       O  0.60768883  0.19557578  0.87815462    -0.39900
O1166       O  0.56229462  0.20778696  0.83467518    -0.40000
C1167       C  0.81024642  0.32499758  0.62525656    -0.12200
C1168       C  0.82461730  0.30893523  0.58639313     0.04800
C1169       C  0.82638702  0.27363734  0.58532561    -0.07500
C1170       C  0.81137250  0.25505259  0.62079235    -0.08300
C1171       C  0.79350089  0.27085033  0.65756698    -0.02800
C1172       C  0.79433755  0.30637035  0.66050095     0.04000
N1173       N  0.77510146  0.32411011  0.69531990     0.66500
H1174       H  0.80832649  0.35212297  0.62623840     0.15400
H1175       H  0.81133607  0.22793866  0.61762014     0.15100
N1176       N  0.84173760  0.25625756  0.54699874     0.74200
O1177       O  0.79189861  0.33860499  0.72737859    -0.39200
O1178       O  0.74335482  0.33247436  0.68763817    -0.39200
O1179       O  0.87435265  0.24913033  0.54732615    -0.39900
O1180       O  0.82218231  0.24517699  0.51500036    -0.40000
C1181       C  0.81575172  0.32070202  0.88263431    -0.12200
C1182       C  0.79799921  0.33259942  0.92183831     0.04800
C1183       C  0.76110122  0.32760889  0.92533440    -0.07500
C1184       C  0.74330066  0.30839550  0.89218283    -0.08300
C1185       C  0.76172205  0.29338516  0.85581270    -0.02800
C1186       C  0.79813379  0.30043286  0.84992100     0.04000
N1187       N  0.81797979  0.28601479  0.81261986     0.66500
H1188       H  0.84416068  0.32402012  0.87998540     0.15400
H1189       H  0.71530977  0.30331458  0.89659687     0.15100
N1190       N  0.74185368  0.33972322  0.96433120     0.74200
O1191       O  0.83989531  0.30376969  0.79125887    -0.39200
O1192       O  0.81776489  0.25472637  0.80557923    -0.39200
O1193       O  0.73140653  0.36982035  0.96557831    -0.39900
O1194       O  0.72945759  0.31911642  0.99251720    -0.40000
C1195       C  0.86883985  0.86526902  0.00127724     0.80300
N1196       N  0.86161053  0.84790562  0.04038066    -0.78000
C1197       C  0.83637077  0.82352356  0.03971215     0.82700
N1198       N  0.81149875  0.82211166  0.49373537    -0.78000
C1199       C  0.81905916  0.84146167  0.45744808     0.82800
N1200       N  0.84636252  0.86337045  0.46035961    -0.79700
C1201       C  0.55091381  0.86108420  0.99260368     0.80300
N1202       N  0.56094754  0.84667633  0.45475797    -0.78000
C1203       C  0.58662070  0.82289057  0.45120346     0.82700
N1204       N  0.60374446  0.81224790  0.48958694    -0.78000
C1205       C  0.59476200  0.82655716  0.02511452     0.82800
N1206       N  0.56968768  0.85082443  0.02984228    -0.79700
C1207       C  0.87890121  0.54239005  0.99382443     0.80300
N1208       N  0.86715684  0.55756779  0.45064180    -0.78000
C1209       C  0.84564709  0.58494087  0.44951677     0.82700
N1210       N  0.83214225  0.59747618  0.48927358    -0.78000
C1211       C  0.84115051  0.57938871  0.03371372     0.82800
N1212       N  0.86336315  0.55261349  0.03367813    -0.79700
N1213       N  0.96271687  0.89791584  0.99576608    -0.36600
N1214       N  0.51808598  0.94980405  0.99924026    -0.57100
N1215       N  0.96881033  0.50229255  0.99367164    -0.36600
N1216       N  0.91007722  0.95166697  0.99827206    -0.57100
C1217       C  0.99123228  0.87745007  0.99980362     0.27000
C1218       C  0.93325261  0.87939279  0.00303200     0.27000
C1219       C  0.99875374  0.52030711  0.00141033     0.27000
C1220       C  0.94084076  0.52304059  0.00021484     0.27600
C1221       C  0.53786530  0.92152601  0.99777163     0.35600
C1222       C  0.54075615  0.97595858  0.99701346     0.35600
C1223       C  0.88759066  0.92525382  0.99671729     0.35600
C1224       C  0.89020094  0.97981573  0.99396459     0.35600
C1225       C  0.97976888  0.84523405  0.00908671    -0.21900
C1226       C  0.94333818  0.84643316  0.01105649    -0.21900
C1227       C  0.98953736  0.55316031  0.01229016    -0.21900
C1228       C  0.95310417  0.55488687  0.01153821    -0.21900
C1229       C  0.57349656  0.92982150  0.99481795    -0.22900
C1230       C  0.57530821  0.96419859  0.99454583    -0.22900
C1231       C  0.85303618  0.93682606  0.99218068    -0.22900
C1232       C  0.85469560  0.97124727  0.99033111    -0.22900
C1233       C  0.52466702  0.88824321  0.99744541    -0.18300
C1234       C  0.89751018  0.89092256  0.00080864    -0.18300
C1235       C  0.90458680  0.51457260  0.99458535    -0.18300
C1236       C  0.53311487  0.50643676  0.99857161    -0.18300
H1237       H  0.49249800  0.82341227  0.99021397     0.14600
H1238       H  0.92633364  0.82522670  0.01734309     0.14600
H1239       H  0.00712904  0.57393188  0.01956843     0.14600
H1240       H  0.93744124  0.57719240  0.01837812     0.14600
H1241       H  0.59595132  0.91288673  0.99269061     0.12900
H1242       H  0.59935228  0.97879802  0.99254310     0.12900
H1243       H  0.82903672  0.92208726  0.99058842     0.12900
H1244       H  0.83224458  0.98805532  0.98692890     0.12900
H1245       H  0.96350325  0.92277071  0.98666759     0.26200
H1246       H  0.96660403  0.97628720  0.98687733     0.26200
C1247       C  0.56263017  0.53109262  0.99932933     0.80300
N1248       N  0.57177730  0.54735520  0.03921471    -0.78000
C1249       C  0.59874967  0.56994417  0.03950826     0.82700
N1250       N  0.61127115  0.58369373  0.50129568    -0.78000
C1251       C  0.60189561  0.56899432  0.46089149     0.82800
N1252       N  0.57584249  0.54548385  0.46009623    -0.79700
O1253       O  0.67479706  0.73801266  0.33674466    -0.80100
O1254       O  0.67662410  0.67700099  0.15882557    -0.80100
O1255       O  0.69219082  0.78681419  0.20547342    -0.80100
O1256       O  0.70476226  0.62852460  0.29755127    -0.80100
O1257       O  0.68372036  0.74044936  0.16315586    -0.80200
O1258       O  0.67522853  0.66893035  0.33368775    -0.80100
O1259       O  0.67278806  0.64502053  0.21778543    -0.80100
O1260       O  0.65649643  0.74938259  0.26632245    -0.80100
C1261       C  0.65244385  0.75086671  0.30963551     1.09600
C1262       C  0.66202231  0.65294744  0.17792508     1.09500
C1263       C  0.67972929  0.77235859  0.16982337     1.09600
C1264       C  0.68058720  0.63802916  0.32533940     1.09500
O1265       O  0.75052562  0.67003091  0.34008703    -0.80100
O1266       O  0.75026546  0.72362033  0.15801878    -0.80200
O1267       O  0.72200621  0.77754900  0.29304691    -0.80100
O1268       O  0.73893151  0.61681049  0.21045025    -0.80100
O1269       O  0.74498801  0.66346463  0.16978681    -0.80100
O1270       O  0.75014427  0.73857257  0.33244595    -0.80100
O1271       O  0.77068271  0.65878633  0.27084066    -0.80100
O1272       O  0.75605012  0.75584812  0.21727743    -0.80100
Co1273     Co  0.71260807  0.70384979  0.33142484     1.51500
Co1274     Co  0.71272982  0.70174156  0.19149089     1.51700
Co1275     Co  0.70554728  0.74892073  0.24067559     1.51600
Co1276     Co  0.72203097  0.65530134  0.24363385     1.51500
O1277       O  0.71214910  0.70237570  0.26249234    -1.42000
C1278       C  0.77435224  0.65831477  0.31414340     1.09500
C1279       C  0.76612286  0.74739279  0.17719351     1.09600
C1280       C  0.74550143  0.76899280  0.32191454     1.09500
C1281       C  0.75260277  0.63228430  0.17685542     1.09500
C1282       C  0.60669895  0.62552641  0.07615205    -0.12200
C1283       C  0.60747094  0.59062669  0.08060117     0.04800
C1284       C  0.62040462  0.57673120  0.12171330    -0.07500
C1285       C  0.63412790  0.59790648  0.15663573    -0.08300
C1286       C  0.63584479  0.63288999  0.15067360    -0.02800
C1287       C  0.62024932  0.64676196  0.11060433     0.04000
N1288       N  0.62016958  0.68227995  0.10288366     0.66500
H1289       H  0.59647716  0.63638835  0.04475922     0.15400
H1290       H  0.64675212  0.58666865  0.18625459     0.15100
N1291       N  0.62389384  0.54120819  0.12601159     0.74200
O1292       O  0.62984261  0.69363303  0.06466157    -0.39200
O1293       O  0.60992451  0.70237724  0.13397259    -0.39200
O1294       O  0.64833794  0.52579711  0.10501937    -0.39900
O1295       O  0.60472697  0.52569789  0.15396976    -0.40000
C1296       C  0.60335887  0.59581286  0.38396835    -0.12200
C1297       C  0.62116513  0.57880862  0.41908966     0.04800
C1298       C  0.65848251  0.57688327  0.41832227    -0.07500
C1299       C  0.67754843  0.59447485  0.38518503    -0.08300
C1300       C  0.65990627  0.61332211  0.35167213    -0.02800
C1301       C  0.62237548  0.61262201  0.34970796     0.04000
N1302       N  0.60341212  0.62846809  0.31296285     0.66500
H1303       H  0.57465830  0.59697134  0.38414224     0.15400
H1304       H  0.70626128  0.59458754  0.38684213     0.15100
N1305       N  0.67722485  0.55780981  0.45206405     0.74200
O1306       O  0.61330015  0.62373241  0.27205310    -0.39200
O1307       O  0.57354634  0.64182898  0.32023646    -0.39200
O1308       O  0.67104624  0.52690403  0.45616035    -0.39900
O1309       O  0.69871355  0.57207359  0.47922484    -0.40000
C1310       C  0.79755432  0.63855710  0.11685429    -0.12200
C1311       C  0.77906522  0.61673892  0.14561122     0.04800
C1312       C  0.78622164  0.58199966  0.14235041    -0.07500
C1313       C  0.80851704  0.56973545  0.10719624    -0.08300
C1314       C  0.82431449  0.59189539  0.07617309    -0.02800
C1315       C  0.82002992  0.62663963  0.08285941     0.04000
N1316       N  0.83774588  0.65032158  0.05456639     0.66500
H1317       H  0.79436348  0.66545776  0.12011620     0.15400
H1318       H  0.81220466  0.54291561  0.10291482     0.15100
N1319       N  0.77060950  0.55899679  0.17345855     0.74200
O1320       O  0.87080953  0.65419917  0.05839743    -0.39200
O1321       O  0.81985526  0.67037523  0.03043879    -0.39200
O1322       O  0.74443852  0.54152121  0.16084019    -0.39900
O1323       O  0.78534480  0.55350309  0.21167654    -0.40000
C1324       C  0.83986018  0.63738822  0.40649415    -0.12200
C1325       C  0.83726120  0.60240723  0.40631648     0.04800
C1326       C  0.82125885  0.58602761  0.36841632    -0.07500
C1327       C  0.80477247  0.60515753  0.33391810    -0.08300
C1328       C  0.80378073  0.64042478  0.33711358    -0.02800
C1329       C  0.82306442  0.65651482  0.37282053     0.04000
N1330       N  0.82335684  0.69225638  0.37800102     0.66500
H1331       H  0.85251928  0.65016918  0.43525450     0.15400
H1332       H  0.78945624  0.59239418  0.30743894     0.15100
N1333       N  0.81767249  0.55035694  0.36747087     0.74200
O1334       O  0.79632790  0.70699502  0.39383181    -0.39200
O1335       O  0.85276427  0.70718763  0.37973882    -0.39200
O1336       O  0.79270993  0.53667198  0.38887469    -0.39900
O1337       O  0.84079275  0.53239308  0.34779327    -0.40000
C1338       C  0.65318109  0.81295075  0.05898465    -0.12200
C1339       C  0.61638777  0.81590945  0.06454456     0.04800
C1340       C  0.60101083  0.80770508  0.10696607    -0.07500
C1341       C  0.62258631  0.79553658  0.14250637    -0.08300
C1342       C  0.65915338  0.79124999  0.13600963    -0.02800
C1343       C  0.67458574  0.80069037  0.09435804     0.04000
N1344       N  0.71186977  0.79726521  0.08726171     0.66500
H1345       H  0.66526755  0.81963855  0.02669286     0.15400
H1346       H  0.61052684  0.78762322  0.17427619     0.15100
N1347       N  0.56341505  0.80914152  0.11313847     0.74200
O1348       O  0.72434758  0.76987045  0.07224391    -0.39200
O1349       O  0.73128086  0.82293893  0.08880577    -0.39200
O1350       O  0.56606535  0.75067830  0.55509115    -0.39900
O1351       O  0.53958212  0.78383831  0.60435215    -0.40000
C1352       C  0.62837384  0.80567373  0.33533793    -0.12200
C1353       C  0.62414625  0.77063731  0.33207097     0.04800
C1354       C  0.60220383  0.75469585  0.36418003    -0.07500
C1355       C  0.58790633  0.77292822  0.40098462    -0.08300
C1356       C  0.59492438  0.80706950  0.40660185    -0.02800
C1357       C  0.61372733  0.82401939  0.37233716     0.04000
N1358       N  0.62128127  0.85898198  0.37735413     0.66500
H1359       H  0.64605659  0.81822520  0.31196394     0.15400
H1360       H  0.57317854  0.75981951  0.42707121     0.15100
N1361       N  0.59689839  0.71928817  0.36247618     0.74200
O1362       O  0.64831603  0.86836215  0.39967371    -0.39200
O1363       O  0.59870846  0.88042380  0.36457720    -0.39200
O1364       O  0.61897406  0.70033890  0.38213043    -0.39900
O1365       O  0.56627512  0.70835243  0.35359800    -0.40000
C1366       C  0.81790569  0.81868860  0.12212051    -0.12200
C1367       C  0.82802084  0.80309341  0.08067467     0.04800
C1368       C  0.82370261  0.76810893  0.07592336    -0.07500
C1369       C  0.80686787  0.75001235  0.11039694    -0.08300
C1370       C  0.79320806  0.76595828  0.15001931    -0.02800
C1371       C  0.80013479  0.80061643  0.15646153     0.04000
N1372       N  0.78564712  0.81878396  0.19461004     0.66500
H1373       H  0.82062260  0.84561711  0.12600469     0.15400
H1374       H  0.80233961  0.72352659  0.10445287     0.15100
N1375       N  0.83453263  0.75086143  0.03490721     0.74200
O1376       O  0.80626976  0.83307717  0.22283527    -0.39200
O1377       O  0.75336914  0.82716481  0.19383432    -0.39200
O1378       O  0.86654501  0.74238217  0.02980369    -0.39900
O1379       O  0.81165618  0.74144479  0.00575603    -0.40000
C1380       C  0.81963449  0.81842694  0.37858629    -0.12200
C1381       C  0.80051156  0.83412869  0.41402095     0.04800
C1382       C  0.76320876  0.83320052  0.41308267    -0.07500
C1383       C  0.74578554  0.81386492  0.37976600    -0.08300
C1384       C  0.76503323  0.79475074  0.34784058    -0.02800
C1385       C  0.80234775  0.79810693  0.34572909     0.04000
N1386       N  0.82317943  0.78060487  0.31179602     0.66500
H1387       H  0.84835692  0.81889914  0.37944222     0.15400
H1388       H  0.71714961  0.81176990  0.38106011     0.15100
N1389       N  0.74283511  0.84965354  0.44800814     0.74200
O1390       O  0.84920966  0.79504474  0.29363488    -0.39200
O1391       O  0.81865450  0.74970931  0.30411138    -0.39200
O1392       O  0.73408091  0.87998485  0.44314548    -0.39900
O1393       O  0.72802912  0.83251008  0.47852543    -0.40000
C1394       C  0.86492767  0.86685855  0.50045277     0.80300
N1395       N  0.85697591  0.84708397  0.53709999    -0.78000
C1396       C  0.83038585  0.82413141  0.53326828     0.82700
N1397       N  0.81813454  0.81732559  0.00029561    -0.78000
C1398       C  0.82485767  0.83445465  0.96146180     0.82800
N1399       N  0.85066059  0.85812574  0.96172650    -0.79700
C1400       C  0.55226323  0.85955229  0.49667031     0.80300
N1401       N  0.55712065  0.84711366  0.95059027    -0.78000
C1402       C  0.58193727  0.82265005  0.94606765     0.82700
N1403       N  0.60083496  0.81267064  0.98318976    -0.78000
C1404       C  0.59552361  0.82546505  0.53137972     0.82800
N1405       N  0.56965081  0.84904719  0.53492229    -0.79700
C1406       C  0.87479019  0.54289674  0.49154336     0.80300
N1407       N  0.87185301  0.55858479  0.95381038    -0.78000
C1408       C  0.84938096  0.58527814  0.95388419     0.82700
N1409       N  0.83437739  0.59542136  0.99385247    -0.78000
C1410       C  0.83946635  0.58308069  0.53019481     0.82800
N1411       N  0.86084189  0.55556681  0.53119648    -0.79700
N1412       N  0.95923684  0.89816676  0.49928862    -0.36600
N1413       N  0.51978788  0.94808912  0.50118273    -0.57100
N1414       N  0.96508245  0.50325640  0.49323753    -0.36600
N1415       N  0.90772437  0.95223886  0.49992099    -0.57100
C1416       C  0.98743482  0.87739066  0.50335864     0.27000
C1417       C  0.92952421  0.88002890  0.50664100     0.27000
C1418       C  0.99482548  0.52153369  0.50111007     0.27000
C1419       C  0.93685745  0.52378672  0.49948932     0.27600
C1420       C  0.53904363  0.91967752  0.50535627     0.35600
C1421       C  0.54273116  0.97393209  0.50573088     0.35600
C1422       C  0.88479919  0.92624640  0.49779982     0.35600
C1423       C  0.88852983  0.98042854  0.49304344     0.35600
C1424       C  0.97558327  0.84539380  0.51315929    -0.21900
C1425       C  0.93915446  0.84702791  0.51515801    -0.21900
C1426       C  0.98527623  0.55432568  0.51176649    -0.21900
C1427       C  0.94882057  0.55575506  0.51075608    -0.21900
C1428       C  0.57456203  0.92758126  0.51190610    -0.22900
C1429       C  0.57683494  0.96188074  0.51236236    -0.22900
C1430       C  0.85061856  0.93823882  0.49077001    -0.22900
C1431       C  0.85302653  0.97244675  0.48746648    -0.22900
C1432       C  0.52575586  0.88667014  0.50026475    -0.18300
C1433       C  0.89402367  0.89191319  0.50303180    -0.18300
C1434       C  0.90066487  0.51504854  0.49337062    -0.18300
C1435       C  0.53154617  0.51060127  0.49946616    -0.18300
H1436       H  0.49258407  0.82377880  0.47841707     0.14600
H1437       H  0.92188802  0.82601909  0.52141353     0.14600
H1438       H  0.00268106  0.57522905  0.51911567     0.14600
H1439       H  0.93295917  0.57797125  0.51732806     0.14600
H1440       H  0.59674140  0.91048042  0.51540120     0.12900
H1441       H  0.60095301  0.97625843  0.51632778     0.12900
H1442       H  0.82632614  0.92399572  0.48843817     0.12900
H1443       H  0.83104172  0.98951788  0.48204773     0.12900
H1444       H  0.96047377  0.92288509  0.48957179     0.26200
H1445       H  0.96480818  0.97664193  0.48323298     0.26200
C1446       C  0.55979123  0.53651614  0.50002320     0.80300
N1447       N  0.56975995  0.55131874  0.54055330    -0.78000
C1448       C  0.59544243  0.57515172  0.54102650     0.82700
N1449       N  0.61643986  0.57590561  0.00010137    -0.78000
C1450       C  0.60784351  0.55970424  0.96045077     0.82800
N1451       N  0.58052138  0.53759853  0.95987349    -0.79700
O1452       O  0.66966323  0.73118893  0.83856504    -0.80100
O1453       O  0.68654547  0.67234327  0.66084977    -0.80100
O1454       O  0.69892228  0.78476311  0.70568374    -0.80100
O1455       O  0.70701116  0.62405968  0.79862095    -0.80100
O1456       O  0.67568949  0.73708314  0.68245431    -0.80200
O1457       O  0.67267793  0.66189847  0.83313345    -0.80100
O1458       O  0.67798427  0.64051074  0.71947539    -0.80100
O1459       O  0.66092688  0.75304363  0.76983793    -0.80100
C1460       C  0.65255495  0.74971707  0.81148607     1.09600
C1461       C  0.67010295  0.64856688  0.67910910     1.09500
C1462       C  0.67750329  0.76937564  0.67933458     1.09600
C1463       C  0.68117368  0.63152273  0.82498872     1.09500
O1464       O  0.74690306  0.66555258  0.84534247    -0.80100
O1465       O  0.73685908  0.72159323  0.64033982    -0.80200
O1466       O  0.73104028  0.77210305  0.78930851    -0.80100
O1467       O  0.74526460  0.61757293  0.71330339    -0.80100
O1468       O  0.75946078  0.66924353  0.69090242    -0.80100
O1469       O  0.74503034  0.73354565  0.84046380    -0.80100
O1470       O  0.77158581  0.66027871  0.77814345    -0.80100
O1471       O  0.75613532  0.74377450  0.70560424    -0.80100
Co1472     Co  0.70836746  0.69831445  0.83405709     1.51500
Co1473     Co  0.71773944  0.70406815  0.69506350     1.51700
Co1474     Co  0.70792095  0.74481468  0.74025723     1.51600
Co1475     Co  0.72431658  0.65300891  0.74723305     1.51500
O1476       O  0.70707570  0.69695360  0.76398845    -1.42000
C1477       C  0.77332196  0.65778072  0.82129494     1.09500
C1478       C  0.75850143  0.74098007  0.66123757     1.09600
C1479       C  0.74745886  0.76287981  0.82493293     1.09500
C1480       C  0.76215451  0.63669946  0.68634126     1.09500
C1481       C  0.60285557  0.62702847  0.58722382    -0.12200
C1482       C  0.60707822  0.59214894  0.58371579     0.04800
C1483       C  0.62794791  0.57541232  0.61658448    -0.07500
C1484       C  0.64616205  0.59398513  0.65050303    -0.08300
C1485       C  0.64379567  0.62915918  0.65198313    -0.02800
C1486       C  0.62046667  0.64548694  0.62159152     0.04000
N1487       N  0.61448042  0.68081143  0.62563912     0.66500
H1488       H  0.58651758  0.64005155  0.56235388     0.15400
H1489       H  0.66426379  0.58111364  0.67341424     0.15100
N1490       N  0.63406615  0.54012500  0.61267064     0.74200
O1491       O  0.61625101  0.69919182  0.59076430    -0.39200
O1492       O  0.60535562  0.69333392  0.66382670    -0.39200
O1493       O  0.66061019  0.52920590  0.59084842    -0.39900
O1494       O  0.61478865  0.52003839  0.63433697    -0.40000
C1495       C  0.60788929  0.58396350  0.88248411    -0.12200
C1496       C  0.62685194  0.56875554  0.91822763     0.04800
C1497       C  0.66430950  0.56924403  0.91773052    -0.07500
C1498       C  0.68191219  0.58756274  0.88394914    -0.08300
C1499       C  0.66277971  0.60519491  0.85060307    -0.02800
C1500       C  0.62560547  0.60210620  0.84864606     0.04000
N1501       N  0.60554891  0.61829752  0.81341719     0.66500
H1502       H  0.57916490  0.58367103  0.88257111     0.15400
H1503       H  0.71053678  0.58970791  0.88537601     0.15100
N1504       N  0.68457153  0.55251903  0.95257357     0.74200
O1505       O  0.60744774  0.60761664  0.77251417    -0.39200
O1506       O  0.58216574  0.63968425  0.82402993    -0.39200
O1507       O  0.67645083  0.52321157  0.96448609    -0.39900
O1508       O  0.71170854  0.56625159  0.96985188    -0.40000
C1509       C  0.79734888  0.64399792  0.61540464    -0.12200
C1510       C  0.78587092  0.62252508  0.65014246     0.04800
C1511       C  0.79489361  0.58807220  0.64683549    -0.07500
C1512       C  0.81378086  0.57585335  0.60857396    -0.08300
C1513       C  0.82360569  0.59725163  0.57286890    -0.02800
C1514       C  0.81580675  0.63183299  0.57715908     0.04000
N1515       N  0.82637859  0.65509883  0.54290341     0.66500
H1516       H  0.79112882  0.67050481  0.61708647     0.15400
H1517       H  0.81957803  0.54925296  0.60600751     0.15100
N1518       N  0.78459563  0.56500548  0.68141643     0.74200
O1519       O  0.85750988  0.66652279  0.54336672    -0.39200
O1520       O  0.80340418  0.66782755  0.51661788    -0.39200
O1521       O  0.75820689  0.54622114  0.67462139    -0.39900
O1522       O  0.80494647  0.55969817  0.71511679    -0.40000
C1523       C  0.83878071  0.63898423  0.91527500    -0.12200
C1524       C  0.84046169  0.60395951  0.91177294     0.04800
C1525       C  0.82680399  0.58795687  0.87207994    -0.07500
C1526       C  0.80876042  0.60699960  0.83882297    -0.08300
C1527       C  0.80349841  0.64172266  0.84518930    -0.02800
C1528       C  0.81982664  0.65789514  0.88326378     0.04000
N1529       N  0.81462120  0.69290442  0.89273893     0.66500
H1530       H  0.84936977  0.65151743  0.94559095     0.15400
H1531       H  0.79556678  0.59409151  0.81059990     0.15100
N1532       N  0.82671220  0.55219358  0.86823299     0.74200
O1533       O  0.78516585  0.70277932  0.90825617    -0.39200
O1534       O  0.84139205  0.71134385  0.89874389    -0.39200
O1535       O  0.80110736  0.53574297  0.88401066    -0.39900
O1536       O  0.85353368  0.53690878  0.85273032    -0.40000
C1537       C  0.64692046  0.82823146  0.58488029    -0.12200
C1538       C  0.61439594  0.81383103  0.57258388     0.04800
C1539       C  0.60101075  0.78734444  0.59856466    -0.07500
C1540       C  0.62100202  0.77458669  0.63514676    -0.08300
C1541       C  0.65458365  0.78755137  0.64614153    -0.02800
C1542       C  0.66695510  0.81554009  0.62160774     0.04000
N1543       N  0.70054505  0.83028237  0.63185314     0.66500
H1544       H  0.65719607  0.84890383  0.56519852     0.15400
H1545       H  0.61046956  0.75412170  0.65463801     0.15100
N1546       N  0.56775615  0.77237029  0.58694565     0.74200
O1547       O  0.72632157  0.82477949  0.60533807    -0.39200
O1548       O  0.70221396  0.85422933  0.66051903    -0.39200
O1549       O  0.54335895  0.79048117  0.08931575    -0.39900
O1550       O  0.55025942  0.82832704  0.14339225    -0.40000
C1551       C  0.63099628  0.80491464  0.83717530    -0.12200
C1552       C  0.62443720  0.77044874  0.83197602     0.04800
C1553       C  0.59812376  0.75543348  0.85885774    -0.07500
C1554       C  0.58122986  0.77411771  0.89332575    -0.08300
C1555       C  0.59021657  0.80769481  0.90124473    -0.02800
C1556       C  0.61412646  0.82363462  0.87181620     0.04000
N1557       N  0.62512023  0.85735616  0.88095010     0.66500
H1558       H  0.65200189  0.81646645  0.81772243     0.15400
H1559       H  0.56314272  0.76167681  0.91629821     0.15100
N1560       N  0.59068230  0.72048472  0.85417855     0.74200
O1561       O  0.65494763  0.86283174  0.89932253    -0.39200
O1562       O  0.60351821  0.88128357  0.87576117    -0.39200
O1563       O  0.60281399  0.70023006  0.88336177    -0.39900
O1564       O  0.56693242  0.71095720  0.82634849    -0.40000
C1565       C  0.81736572  0.81122227  0.61570206    -0.12200
C1566       C  0.82150610  0.80018379  0.57010367     0.04800
C1567       C  0.81050931  0.76740708  0.55796757    -0.07500
C1568       C  0.79214491  0.74807140  0.58947287    -0.08300
C1569       C  0.78477053  0.76006422  0.63391308    -0.02800
C1570       C  0.79910112  0.79154064  0.64781460     0.04000
N1571       N  0.79299968  0.80536301  0.69270246     0.66500
H1572       H  0.82561148  0.83633085  0.62543624     0.15400
H1573       H  0.78239991  0.72379671  0.57823879     0.15100
N1574       N  0.81640621  0.75391552  0.51280202     0.74200
O1575       O  0.81903130  0.81544517  0.71640170    -0.39200
O1576       O  0.76234768  0.81535075  0.70332853    -0.39200
O1577       O  0.84759850  0.74996471  0.49820154    -0.39900
O1578       O  0.79053626  0.74431941  0.48838614    -0.40000
C1579       C  0.82388725  0.80837526  0.88347594    -0.12200
C1580       C  0.80554854  0.82477658  0.91911007     0.04800
C1581       C  0.76822890  0.82502216  0.91838580    -0.07500
C1582       C  0.74989360  0.80650699  0.88489070    -0.08300
C1583       C  0.76817088  0.78736395  0.85198414    -0.02800
C1584       C  0.80560972  0.78917879  0.85005156     0.04000
N1585       N  0.82552576  0.77093770  0.81590392     0.66500
H1586       H  0.85260978  0.80797427  0.88406196     0.15400
H1587       H  0.72118846  0.80553939  0.88621658     0.15100
N1588       N  0.74862433  0.84274794  0.95287168     0.74200
O1589       O  0.85306380  0.78369389  0.79910884    -0.39200
O1590       O  0.81786039  0.74097977  0.80565564    -0.39200
O1591       O  0.73934570  0.87272409  0.94602819    -0.39900
O1592       O  0.73494917  0.82681361  0.98541475    -0.40000
loop_ 
_geom_bond_atom_site_label_1 
_geom_bond_atom_site_label_2 
_geom_bond_distance 
_geom_bond_site_symmetry_2 
_ccdc_geom_bond_type 
C1            N2   1.368       .  A
C1          N205   1.364   1_554  A
C1           C40   1.491       .  S
N2            C3   1.363       .  A
C3          N203   1.355       .  A
C3          C173   1.486       .  S
N4            C5   1.353       .  A
N4          C202   1.355       .  A
C5            N6   1.356       .  A
C5          C187   1.472       .  S
N6          C200   1.363       .  A
C7           N12   1.359   1_556  A
C7          N207   1.360       .  A
C7           C39   1.471       .  S
N8            C9   1.356       .  A
N8          C206   1.359       .  A
C9           N10   1.358       .  A
C9          C162   1.471       .  S
N10         C210   1.357       .  A
C11          N12   1.356       .  A
C11         N209   1.356   1_554  A
C11         C145   1.470       .  S
C13          N18   1.361   1_556  A
C13         N213   1.363       .  A
C13          C41   1.470       .  S
N14          C15   1.359       .  A
N14         C212   1.366       .  A
C15          N16   1.354       .  A
C15         C131   1.482       .  S
N16         C216   1.352       .  A
C17          N18   1.356       .  A
C17         N215   1.354   1_554  A
C17         C120   1.484       .  S
N19          C24   1.357       .  A
N19          C23   1.353       .  A
N19          H51   1.014   1_554  S
N20          C27   1.350       .  A
N20          C28   1.355       .  A
N21          C26   1.351       .  A
N21          C25   1.359       .  A
N21         H450   1.030   1_545  S
N22          C29   1.355       .  A
N22          C30   1.352   1_554  A
C23          C31   1.388       .  A
C23         C835   1.421   1_554  A
C24          C40   1.424       .  A
C24          C32   1.389       .  A
C25          C33   1.386   1_556  A
C25         C838   1.422       .  A
C26          C41   1.422       .  A
C26          C34   1.390   1_556  A
C27          C39   1.417       .  A
C27          C35   1.388       .  A
C28          C36   1.386       .  A
C28         C440   1.417       .  A
C29          C37   1.387   1_554  A
C29          C40   1.423       .  A
C30          C38   1.387       .  A
C30         C439   1.420       .  A
C31          C32   1.377       .  A
C31         H839   1.083       .  S
C32          H44   1.082       .  S
C33          C34   1.375       .  A
C33          H45   1.082       .  S
C34          H46   1.083       .  S
C35          C36   1.373       .  A
C35          H47   1.083       .  S
C36          H48   1.082       .  S
C37          C38   1.374       .  A
C37          H49   1.082       .  S
C38          H50   1.083       .  S
C39         C819   1.418   1_456  A
C41         C428   1.419   1_545  A
C42          C53   1.489       .  S
C42         C821   1.423   1_455  A
C42         C426   1.418   1_545  A
H43         C827   1.083       .  S
H52         N419   1.018       .  S
C53          N54   1.366   1_556  A
C53         N257   1.366       .  A
N54          C55   1.361       .  A
C55         N255   1.354   1_554  A
C55          C89   1.478       .  S
N56          C57   1.355       .  A
N56         C254   1.355       .  A
C57          N58   1.359       .  A
C57         C103   1.478       .  S
N58         C252   1.365       .  A
O59          C67   1.262       .  A
O59         Co79   1.971       .  S
O60          C68   1.245       .  A
O60         Co80   1.920       .  S
O61          C69   1.274       .  A
O61         Co81   1.916       .  S
O62          C70   1.277       .  A
O62         Co82   2.021       .  S
O63          C69   1.291       .  A
O63         Co80   2.059       .  S
O64          C70   1.270       .  A
O64         Co79   1.986       .  S
O65          C68   1.270       .  A
O65         Co82   2.046       .  S
O66          C67   1.271       .  A
O66         Co81   2.000       .  S
C67         C159   1.476       .  S
C68          C92   1.490       .  S
C69         C148   1.472       .  S
C70         C106   1.478       .  S
O71          C84   1.261       .  A
O71         Co79   1.977       .  S
O72          C85   1.248       .  A
O72         Co80   1.945       .  S
O73          C86   1.269       .  A
O73         Co81   1.993       .  S
O74          C87   1.277       .  A
O74         Co82   1.914       .  S
O75          C87   1.292       .  A
O75         Co80   2.039       .  S
O76          C86   1.267       .  A
O76         Co79   1.983       .  S
O77          C84   1.269       .  A
O77         Co82   2.002       .  S
O78          C85   1.267       .  A
O78         Co81   2.040       .  S
Co79         O83   2.002       .  S
Co80         O83   2.063       .  S
Co81         O83   1.985       .  S
Co82         O83   1.982       .  S
C84         C134   1.480       .  S
C85         C176   1.496       .  S
C86         C190   1.465       .  S
C87         C117   1.483       .  S
C88          C89   1.397       .  A
C88          C93   1.398       .  A
C88          H95   1.085       .  S
C89          C90   1.410       .  A
C90          C91   1.412       .  A
C90          N97   1.430       .  S
C91          C92   1.410       .  A
C91          H96   1.084       .  S
C92          C93   1.420       .  A
C93          N94   1.436       .  S
N94          O98   1.263       .  A
N94          O99   1.262       .  A
N97         O101   1.261       .  A
N97         O100   1.262       .  A
C102        C103   1.403       .  A
C102        C107   1.406       .  A
C102        H109   1.084       .  S
C103        C104   1.411       .  A
C104        C105   1.404       .  A
C104        N111   1.432       .  S
C105        C106   1.401       .  A
C105        H110   1.084       .  S
C106        C107   1.412       .  A
C107        N108   1.429       .  S
N108        O112   1.262       .  A
N108        O113   1.260       .  A
N111        O115   1.262       .  A
N111        O114   1.263       .  A
C116        C117   1.405       .  A
C116        C121   1.384       .  A
C116        H123   1.083       .  S
C117        C118   1.411       .  A
C118        C119   1.410       .  A
C118        N125   1.429       .  S
C119        C120   1.412       .  A
C119        H124   1.083       .  S
C120        C121   1.412       .  A
C121        N122   1.433       .  S
N122        O126   1.262       .  A
N122        O127   1.262       .  A
N125        O129   1.262       .  A
N125        O128   1.262       .  A
C130        C131   1.400       .  A
C130        C135   1.395       .  A
C130        H137   1.084       .  S
C131        C132   1.410       .  A
C132        C133   1.411       .  A
C132        N139   1.429       .  S
C133        C134   1.409       .  A
C133        H138   1.083       .  S
C134        C135   1.416       .  A
C135        N136   1.433       .  S
N136        O140   1.262       .  A
N136        O141   1.262       .  A
N139        O143   1.262       .  A
N139        O142   1.262       .  A
C144        C145   1.400       .  A
C144        C149   1.401       .  A
C144        H151   1.084       .  S
C145        C146   1.407       .  A
C146        C147   1.403       .  A
C146        N153   1.430       .  S
C147        C148   1.405       .  A
C147        H152   1.084       .  S
C148        C149   1.409       .  A
C149        N150   1.430       .  S
N150        O154   1.261       .  A
N150        O155   1.262       .  A
N153        O356   1.262       .  A
N153        O355   1.262       .  A
O156        N352   1.262       .  A
O157        N352   1.262       .  A
C158        C159   1.408       .  A
C158        C163   1.407       .  A
C158        H165   1.084       .  S
C159        C160   1.412       .  A
C160        C161   1.399       .  A
C160        N167   1.427       .  S
C161        C162   1.396       .  A
C161        H166   1.084       .  S
C162        C163   1.408       .  A
C163        N164   1.430       .  S
N164        O168   1.262       .  A
N164        O169   1.262       .  A
N167        O171   1.262       .  A
N167        O170   1.262       .  A
C172        C173   1.404       .  A
C172        C177   1.413       .  A
C172        H179   1.084       .  S
C173        C174   1.410       .  A
C174        C175   1.400       .  A
C174        N181   1.431       .  S
C175        C176   1.408       .  A
C175        H180   1.084       .  S
C176        C177   1.418       .  A
C177        N178   1.429       .  S
N178        O182   1.261       .  A
N178        O183   1.261       .  A
N181        O185   1.262       .  A
N181        O184   1.262       .  A
C186        C187   1.403       .  A
C186        C191   1.405       .  A
C186        H193   1.084       .  S
C187        C188   1.409       .  A
C188        C189   1.396       .  A
C188        N195   1.428       .  S
C189        C190   1.398       .  A
C189        H194   1.085       .  S
C190        C191   1.415       .  A
C191        N192   1.436       .  S
N192        O196   1.262       .  A
N192        O197   1.262       .  A
N195        O199   1.262       .  A
N195        O198   1.262       .  A
C200        N201   1.369       .  A
C200        C239   1.487       .  S
N201        C202   1.364       .  A
C202        C372   1.488       .  S
N203        C204   1.354   1_554  A
C204        N205   1.359       .  A
C204        C386   1.479       .  S
C206        N211   1.358       .  A
C206        C238   1.471       .  S
N207        C208   1.357       .  A
C208        N209   1.358       .  A
C208        C361   1.473       .  S
C210        N211   1.355       .  A
C210        C344   1.468       .  S
C212        N217   1.360       .  A
C212        C240   1.474       .  S
N213        C214   1.356       .  A
C214        N215   1.352       .  A
C214        C330   1.477       .  S
C216        N217   1.353       .  A
C216        C319   1.472       .  S
N218        C223   1.357       .  A
N218        C222   1.349       .  A
N218        H250   1.027       .  S
N219        C226   1.350       .  A
N219        C227   1.353       .  A
N220        C225   1.351       .  A
N220        C224   1.357       .  A
N220        H649   1.032   1_545  S
N221        C228   1.353       .  A
N221        C229   1.349       .  A
C222        C230   1.389       .  A
C222       C1034   1.420       .  A
C223        C239   1.422       .  A
C223        C231   1.387       .  A
C224        C232   1.385       .  A
C224       C1037   1.418       .  A
C225        C240   1.422       .  A
C225        C233   1.391       .  A
C226        C238   1.415       .  A
C226        C234   1.389       .  A
C227        C639   1.415       .  A
C227        C235   1.386       .  A
C228        C236   1.387       .  A
C228        C239   1.419       .  A
C229        C237   1.388       .  A
C229        C638   1.418       .  A
C230        C231   1.376       .  A
C230       H1038   1.083       .  S
C231        H243   1.082       .  S
C232        C233   1.376       .  A
C232        H244   1.083       .  S
C233        H245   1.082       .  S
C234        C235   1.371       .  A
C234        H246   1.083       .  S
C235        H247   1.082       .  S
C236        C237   1.373       .  A
C236        H248   1.082       .  S
C237        H249   1.082       .  S
C238       C1018   1.418   1_455  A
C240        C627   1.420   1_545  A
C241        C252   1.486       .  S
C241       C1020   1.418   1_455  A
C241        C625   1.415   1_545  A
H242       C1026   1.083       .  S
H251        N618   1.027       .  S
C252        N253   1.366       .  A
N253        C254   1.361       .  A
C254        C288   1.482       .  S
N255        C256   1.354       .  A
C256        N257   1.362       .  A
C256        C302   1.481       .  S
O258        C266   1.263       .  A
O258       Co278   1.971       .  S
O259        C267   1.246       .  A
O259       Co279   1.924       .  S
O260        C268   1.273       .  A
O260       Co280   1.915       .  S
O261        C269   1.273       .  A
O261       Co281   2.015       .  S
O262        C268   1.293       .  A
O262       Co279   2.063       .  S
O263        C269   1.268       .  A
O263       Co278   1.990       .  S
O264        C267   1.271       .  A
O264       Co281   2.048       .  S
O265        C266   1.271       .  A
O265       Co280   2.003       .  S
C266        C358   1.476       .  S
C267        C291   1.495       .  S
C268        C347   1.473       .  S
C269        C305   1.479       .  S
O270        C283   1.263       .  A
O270       Co278   1.980       .  S
O271        C284   1.250       .  A
O271       Co279   1.946       .  S
O272        C285   1.269       .  A
O272       Co280   2.001       .  S
O273        C286   1.274       .  A
O273       Co281   1.903       .  S
O274        C286   1.296       .  A
O274       Co279   2.054       .  S
O275        C285   1.265       .  A
O275       Co278   1.984       .  S
O276        C283   1.270       .  A
O276       Co281   2.000       .  S
O277        C284   1.270       .  A
O277       Co280   2.040       .  S
Co278       O282   2.005       .  S
Co279       O282   2.066       .  S
Co280       O282   1.986       .  S
Co281       O282   1.982       .  S
C283        C333   1.478       .  S
C284        C375   1.498       .  S
C285        C389   1.472       .  S
C286        C316   1.480       .  S
C287        C288   1.398       .  A
C287        C292   1.399       .  A
C287        H294   1.084       .  S
C288        C289   1.410       .  A
C289        C290   1.412       .  A
C289        N296   1.429       .  S
C290        C291   1.409       .  A
C290        H295   1.083       .  S
C291        C292   1.420       .  A
C292        N293   1.434       .  S
N293        O297   1.263       .  A
N293        O298   1.261       .  A
N296        O300   1.262       .  A
N296        O299   1.262       .  A
C301        C302   1.403       .  A
C301        C306   1.408       .  A
C301        H308   1.084       .  S
C302        C303   1.414       .  A
C303        C304   1.404       .  A
C303        N310   1.435       .  S
C304        C305   1.400       .  A
C304        H309   1.084       .  S
C305        C306   1.413       .  A
C306        N307   1.432       .  S
N307        O311   1.262       .  A
N307        O312   1.262       .  A
N310        O314   1.262       .  A
N310        O313   1.263       .  A
C315        C316   1.404       .  A
C315        C320   1.387       .  A
C315        H322   1.082       .  S
C316        C317   1.413       .  A
C317        C318   1.408       .  A
C317        N324   1.429       .  S
C318        C319   1.406       .  A
C318        H323   1.084       .  S
C319        C320   1.406       .  A
C320        N321   1.431       .  S
N321        O325   1.262       .  A
N321        O326   1.262       .  A
N324        O328   1.262       .  A
N324        O327   1.262       .  A
C329        C330   1.400       .  A
C329        C334   1.397       .  A
C329        H336   1.084       .  S
C330        C331   1.409       .  A
C331        C332   1.409       .  A
C331        N338   1.429       .  S
C332        C333   1.409       .  A
C332        H337   1.084       .  S
C333        C334   1.413       .  A
C334        N335   1.431       .  S
N335        O339   1.262       .  A
N335        O340   1.262       .  A
N338        O342   1.262       .  A
N338        O341   1.262       .  A
C343        C344   1.402       .  A
C343        C348   1.403       .  A
C343        H350   1.084       .  S
C344        C345   1.405       .  A
C345        C346   1.399       .  A
C345        N352   1.429       .  S
C346        C347   1.404       .  A
C346        H351   1.083       .  S
C347        C348   1.409       .  A
C348        N349   1.428       .  S
N349        O353   1.261       .  A
N349        O354   1.262       .  A
C357        C358   1.407       .  A
C357        C362   1.409       .  A
C357        H364   1.084       .  S
C358        C359   1.412       .  A
C359        C360   1.396       .  A
C359        N366   1.428       .  S
C360        C361   1.396       .  A
C360        H365   1.084       .  S
C361        C362   1.410       .  A
C362        N363   1.429       .  S
N363        O367   1.262       .  A
N363        O368   1.262       .  A
N366        O370   1.261       .  A
N366        O369   1.262       .  A
C371        C372   1.405       .  A
C371        C376   1.414       .  A
C371        H378   1.083       .  S
C372        C373   1.410       .  A
C373        C374   1.399       .  A
C373        N380   1.432       .  S
C374        C375   1.408       .  A
C374        H379   1.082       .  S
C375        C376   1.417       .  A
C376        N377   1.428       .  S
N377        O381   1.261       .  A
N377        O382   1.261       .  A
N380        O384   1.262       .  A
N380        O383   1.262       .  A
C385        C386   1.403       .  A
C385        C390   1.411       .  A
C385        H392   1.084       .  S
C386        C387   1.409       .  A
C387        C388   1.396       .  A
C387        N394   1.429       .  S
C388        C389   1.399       .  A
C388        H393   1.085       .  S
C389        C390   1.420       .  A
C390        N391   1.441       .  S
N391        O395   1.263       .  A
N391        O396   1.262       .  A
N394        O398   1.262       .  A
N394        O397   1.262       .  A
C399        N400   1.368   1_556  A
C399        N603   1.365       .  A
C399        C438   1.489   1_556  S
N400        C401   1.363       .  A
C401        N601   1.352   1_554  A
C401        C571   1.483       .  S
N402        C600   1.354       .  A
N402        C403   1.354       .  A
C403        N404   1.362       .  A
C403        C585   1.482       .  S
N404        C598   1.367       .  A
C405        N605   1.359       .  A
C405        N410   1.360   1_556  A
C405        C437   1.474       .  S
N406        C604   1.360       .  A
N406        C407   1.355       .  A
C407        N408   1.354       .  A
C407        C560   1.466       .  S
N408        C608   1.355       .  A
C409        N607   1.357   1_554  A
C409        N410   1.357       .  A
C409        C543   1.473       .  S
C411        N611   1.362       .  A
C411        N416   1.361   1_556  A
C411        C439   1.478       .  S
N412        C610   1.362       .  A
N412        C413   1.357       .  A
C413        N414   1.354       .  A
C413        C529   1.474       .  S
N414        C614   1.354       .  A
C415        N613   1.357   1_554  A
C415        N416   1.358       .  A
C415        C518   1.483       .  S
N417        C422   1.358       .  A
N417        C421   1.352   1_554  A
N417        H449   1.030       .  S
N418        C425   1.351       .  A
N418        C426   1.354       .  A
N419        C424   1.354       .  A
N419        C423   1.359   1_556  A
N420        C427   1.354   1_556  A
N420        C428   1.350       .  A
C421        C429   1.389       .  A
C421       C1233   1.421       .  A
C422        C438   1.421       .  A
C422        C430   1.387   1_554  A
C423        C431   1.387       .  A
C423       C1236   1.423   1_554  A
C424        C439   1.423       .  A
C424        C432   1.389   1_556  A
C425        C437   1.418       .  A
C425        C433   1.388       .  A
C426        C434   1.387       .  A
C427        C435   1.386   1_554  A
C427        C438   1.419       .  A
C428        C436   1.389       .  A
C429        C430   1.373       .  A
C429       H1237   1.082       .  S
C430        H442   1.082       .  S
C431        C432   1.377       .  A
C431        H443   1.082       .  S
C432        H444   1.083       .  S
C433        C434   1.372       .  A
C433        H445   1.083       .  S
C434        H446   1.082       .  S
C435        C436   1.374       .  A
C435        H447   1.082       .  S
C436        H448   1.083       .  S
C437       C1217   1.420   1_455  A
C440        C451   1.492       .  S
C440       C1219   1.421   1_456  A
H441       C1225   1.083       .  S
C451        N452   1.367   1_556  A
C451        N655   1.367       .  A
N452        C453   1.361       .  A
C453        N653   1.351       .  A
C453        C487   1.474       .  S
N454        C652   1.355       .  A
N454        C455   1.355       .  A
C455        N456   1.360       .  A
C455        C501   1.479       .  S
N456        C650   1.365       .  A
O457        C465   1.263       .  A
O457       Co477   1.970       .  S
O458        C466   1.262       .  A
O458       Co478   1.993       .  S
O459        C467   1.267       .  A
O459       Co479   1.928       .  S
O460        C468   1.278       .  A
O460       Co480   2.019       .  S
O461        C467   1.291       .  A
O461       Co478   2.086       .  S
O462        C468   1.273       .  A
O462       Co477   1.989       .  S
O463        C466   1.256       .  A
O463       Co480   1.978       .  S
O464        C465   1.267       .  A
O464       Co479   2.002       .  S
C465        C557   1.470       .  S
C466        C490   1.478       .  S
C467        C546   1.484       .  S
C468        C504   1.479       .  S
O469        C482   1.256       .  A
O469       Co477   1.977       .  S
O470        C483   1.276       .  A
O470       Co478   1.899       .  S
O471        C484   1.264       .  A
O471       Co479   1.996       .  S
O472        C485   1.277       .  A
O472       Co480   1.894       .  S
O473        C485   1.306       .  A
O473       Co478   2.091       .  S
O474        C484   1.263       .  A
O474       Co477   1.987       .  S
O475        C482   1.258       .  A
O475       Co480   2.010       .  S
O476        C483   1.298       .  A
O476       Co479   2.080       .  S
Co477       O481   2.039       .  S
Co478       O481   2.079       .  S
Co479       O481   2.033       .  S
Co480       O481   1.920       .  S
C482        C532   1.473       .  S
C483        C574   1.488       .  S
C484        C588   1.477       .  S
C485        C515   1.494       .  S
C486        C487   1.404       .  A
C486        C491   1.404       .  A
C486        H493   1.084       .  S
C487        C488   1.407       .  A
C488        C489   1.403       .  A
C488        N495   1.429       .  S
C489        C490   1.406       .  A
C489        H494   1.084       .  S
C490        C491   1.409       .  A
C491        N492   1.434       .  S
N492        O496   1.262       .  A
N492        O497   1.262       .  A
N495        O499   1.261       .  A
N495        O498   1.262       .  A
C500        C501   1.402       .  A
C500        C505   1.406       .  A
C500        H507   1.084       .  S
C501        C502   1.412       .  A
C502        C503   1.405       .  A
C502        N509   1.433       .  S
C503        C504   1.402       .  A
C503        H508   1.084       .  S
C504        C505   1.411       .  A
C505        N506   1.430       .  S
N506        O510   1.262       .  A
N506        O511   1.261       .  A
N509        O513   1.262       .  A
N509        O512   1.263       .  A
C514        C515   1.406       .  A
C514        C519   1.398       .  A
C514        H521   1.081       .  S
C515        C516   1.417       .  A
C516        C517   1.407       .  A
C516        N523   1.428       .  S
C517        C518   1.404       .  A
C517        H522   1.084       .  S
C518        C519   1.409       .  A
C519        N520   1.429       .  S
N520        O524   1.262       .  A
N520        O525   1.262       .  A
N523        O527   1.262       .  A
N523        O526   1.262       .  A
C528        C529   1.400       .  A
C528        C533   1.397       .  A
C528        H535   1.084       .  S
C529        C530   1.409       .  A
C530        C531   1.406       .  A
C530        N537   1.429       .  S
C531        C532   1.407       .  A
C531        H536   1.084       .  S
C532        C533   1.412       .  A
C533        N534   1.431       .  S
N534        O538   1.261       .  A
N534        O539   1.262       .  A
N537        O541   1.262       .  A
N537        O540   1.262       .  A
C542        C543   1.398       .  A
C542        C547   1.401       .  A
C542        H549   1.084       .  S
C543        C544   1.406       .  A
C544        C545   1.405       .  A
C544        N551   1.428       .  S
C545        C546   1.406       .  A
C545        H550   1.083       .  S
C546        C547   1.415       .  A
C547        N548   1.427       .  S
N548        O552   1.260       .  A
N548        O553   1.262       .  A
N551        O754   1.262       .  A
N551        O753   1.262       .  A
O554        N750   1.262       .  A
O555        N750   1.262       .  A
C556        C557   1.405       .  A
C556        C561   1.404       .  A
C556        H563   1.084       .  S
C557        C558   1.408       .  A
C558        C559   1.397       .  A
C558        N565   1.427       .  S
C559        C560   1.398       .  A
C559        H564   1.084       .  S
C560        C561   1.408       .  A
C561        N562   1.430       .  S
N562        O566   1.262       .  A
N562        O567   1.262       .  A
N565        O569   1.261       .  A
N565        O568   1.262       .  A
C570        C571   1.402       .  A
C570        C575   1.409       .  A
C570        H577   1.084       .  S
C571        C572   1.412       .  A
C572        C573   1.397       .  A
C572        N579   1.432       .  S
C573        C574   1.402       .  A
C573        H578   1.082       .  S
C574        C575   1.419       .  A
C575        N576   1.429       .  S
N576        O580   1.260       .  A
N576        O581   1.261       .  A
N579        O583   1.262   1_554  A
N579        O582   1.262       .  A
C584        C585   1.404       .  A
C584        C589   1.412       .  A
C584        H591   1.084       .  S
C585        C586   1.410       .  A
C586        C587   1.399       .  A
C586        N593   1.429       .  S
C587        C588   1.400       .  A
C587        H592   1.085       .  S
C588        C589   1.419       .  A
C589        N590   1.439       .  S
N590        O594   1.263       .  A
N590        O595   1.262       .  A
N593        O597   1.262       .  A
N593        O596   1.262       .  A
C598        N599   1.367       .  A
C598        C637   1.493       .  S
N599        C600   1.363       .  A
C600        C770   1.485       .  S
N601        C602   1.350       .  A
C602        N603   1.358       .  A
C602        C784   1.472       .  S
C604        N609   1.360       .  A
C604        C636   1.471       .  S
N605        C606   1.356       .  A
C606        N607   1.358       .  A
C606        C759   1.471       .  S
C608        N609   1.357       .  A
C608        C742   1.473       .  S
C610        N615   1.357       .  A
C610        C638   1.467       .  S
N611        C612   1.358       .  A
C612        N613   1.358       .  A
C612        C728   1.478       .  S
C614        N615   1.352       .  A
C614        C717   1.468       .  S
N616        C621   1.358       .  A
N616        C620   1.353       .  A
N616        H648   1.033       .  S
N617        C624   1.350       .  A
N617        C625   1.354       .  A
N618        C623   1.350       .  A
N618        C622   1.357       .  A
N619        C626   1.355       .  A
N619        C627   1.352       .  A
C620        C628   1.389       .  A
C620       C1432   1.421       .  A
C621        C637   1.420       .  A
C621        C629   1.386       .  A
C622        C630   1.386       .  A
C622       C1435   1.421       .  A
C623        C638   1.422       .  A
C623        C631   1.391       .  A
C624        C636   1.418       .  A
C624        C632   1.389       .  A
C625        C633   1.385       .  A
C626        C634   1.385       .  A
C626        C637   1.418       .  A
C627        C635   1.389       .  A
C628        C629   1.377       .  A
C628       H1436   1.082       .  S
C629        H641   1.083       .  S
C630        C631   1.375       .  A
C630        H642   1.082       .  S
C631        H643   1.082       .  S
C632        C633   1.372       .  A
C632        H644   1.083       .  S
C633        H645   1.082       .  S
C634        C635   1.374       .  A
C634        H646   1.082       .  S
C635        H647   1.082       .  S
C636       C1416   1.418   1_455  A
C639        C650   1.488       .  S
C639       C1418   1.420   1_455  A
H640       C1424   1.082       .  S
C650        N651   1.365       .  A
N651        C652   1.361       .  A
C652        C686   1.480       .  S
N653        C654   1.353   1_554  A
C654        N655   1.362       .  A
C654        C700   1.479       .  S
O656        C664   1.264       .  A
O656       Co676   1.980       .  S
O657        C665   1.246       .  A
O657       Co677   1.923       .  S
O658        C666   1.270       .  A
O658       Co678   1.905       .  S
O659        C667   1.273       .  A
O659       Co679   2.013       .  S
O660        C666   1.292       .  A
O660       Co677   2.066       .  S
O661        C667   1.269       .  A
O661       Co676   1.990       .  S
O662        C665   1.270       .  A
O662       Co679   2.045       .  S
O663        C664   1.269       .  A
O663       Co678   1.990       .  S
C664        C756   1.471       .  S
C665        C689   1.491       .  S
C666        C745   1.468       .  S
C667        C703   1.478       .  S
O668        C681   1.263       .  A
O668       Co676   1.980       .  S
O669        C682   1.248       .  A
O669       Co677   1.941       .  S
O670        C683   1.269       .  A
O670       Co678   1.999       .  S
O671        C684   1.276       .  A
O671       Co679   1.912       .  S
O672        C684   1.292       .  A
O672       Co677   2.039       .  S
O673        C683   1.265       .  A
O673       Co676   1.985       .  S
O674        C681   1.272       .  A
O674       Co679   2.005       .  S
O675        C682   1.269       .  A
O675       Co678   2.040       .  S
Co676       O680   2.005       .  S
Co677       O680   2.068       .  S
Co678       O680   1.981       .  S
Co679       O680   1.981       .  S
C681        C731   1.482       .  S
C682        C773   1.496       .  S
C683        C787   1.469       .  S
C684        C714   1.479       .  S
C685        C686   1.399       .  A
C685        C690   1.400       .  A
C685        H692   1.084       .  S
C686        C687   1.410       .  A
C687        C688   1.411       .  A
C687        N694   1.430       .  S
C688        C689   1.409       .  A
C688        H693   1.084       .  S
C689        C690   1.420       .  A
C690        N691   1.437       .  S
N691        O695   1.263       .  A
N691        O696   1.262       .  A
N694        O698   1.262       .  A
N694        O697   1.262       .  A
C699        C700   1.402       .  A
C699        C704   1.406       .  A
C699        H706   1.084       .  S
C700        C701   1.414       .  A
C701        C702   1.404       .  A
C701        N708   1.435       .  S
C702        C703   1.401       .  A
C702        H707   1.084       .  S
C703        C704   1.411       .  A
C704        N705   1.429       .  S
N705        O709   1.261       .  A
N705        O710   1.261       .  A
N708        O712   1.262       .  A
N708        O711   1.263       .  A
C713        C714   1.407       .  A
C713        C718   1.386       .  A
C713        H720   1.083       .  S
C714        C715   1.411       .  A
C715        C716   1.407       .  A
C715        N722   1.429       .  S
C716        C717   1.407       .  A
C716        H721   1.084       .  S
C717        C718   1.404       .  A
C718        N719   1.431       .  S
N719        O723   1.262       .  A
N719        O724   1.262       .  A
N722        O726   1.262       .  A
N722        O725   1.262       .  A
C727        C728   1.397       .  A
C727        C732   1.399       .  A
C727        H734   1.085       .  S
C728        C729   1.409       .  A
C729        C730   1.410       .  A
C729        N736   1.429       .  S
C730        C731   1.409       .  A
C730        H735   1.084       .  S
C731        C732   1.417       .  A
C732        N733   1.431       .  S
N733        O737   1.261       .  A
N733        O738   1.262       .  A
N736        O740   1.262       .  A
N736        O739   1.262       .  A
C741        C742   1.402       .  A
C741        C746   1.397       .  A
C741        H748   1.084       .  S
C742        C743   1.410       .  A
C743        C744   1.405       .  A
C743        N750   1.431       .  S
C744        C745   1.405       .  A
C744        H749   1.084       .  S
C745        C746   1.405       .  A
C746        N747   1.429       .  S
N747        O751   1.261       .  A
N747        O752   1.262       .  A
C755        C756   1.406       .  A
C755        C760   1.405       .  A
C755        H762   1.084       .  S
C756        C757   1.408       .  A
C757        C758   1.399       .  A
C757        N764   1.426       .  S
C758        C759   1.399       .  A
C758        H763   1.084       .  S
C759        C760   1.408       .  A
C760        N761   1.430       .  S
N761        O765   1.262       .  A
N761        O766   1.262       .  A
N764        O768   1.261       .  A
N764        O767   1.262       .  A
C769        C770   1.404       .  A
C769        C774   1.411       .  A
C769        H776   1.084       .  S
C770        C771   1.410       .  A
C771        C772   1.400       .  A
C771        N778   1.431       .  S
C772        C773   1.409       .  A
C772        H777   1.083       .  S
C773        C774   1.417       .  A
C774        N775   1.428       .  S
N775        O779   1.261       .  A
N775        O780   1.262       .  A
N778        O782   1.262       .  A
N778        O781   1.262       .  A
C783        C784   1.403       .  A
C783        C788   1.406       .  A
C783        H790   1.084       .  S
C784        C785   1.410       .  A
C785        C786   1.396       .  A
C785        N792   1.429       .  S
C786        C787   1.398       .  A
C786        H791   1.085       .  S
C787        C788   1.415       .  A
C788        N789   1.433       .  S
N789        O793   1.262       .  A
N789        O794   1.261       .  A
N792        O796   1.262       .  A
N792        O795   1.261       .  A
C797        N798   1.369       .  A
C797       N1001   1.367   1_554  A
C797        C836   1.493       .  S
N798        C799   1.362       .  A
C799        N999   1.351       .  A
C799        C969   1.480       .  S
N800        C998   1.357       .  A
N800        C801   1.357       .  A
C801        N802   1.361       .  A
C801        C983   1.484       .  S
N802        C996   1.365       .  A
C803       N1003   1.359       .  A
C803        N808   1.360   1_556  A
C803        C835   1.474       .  S
N804       C1002   1.357       .  A
N804        C805   1.353       .  A
C805        N806   1.355       .  A
C805        C958   1.464       .  S
N806       C1006   1.356       .  A
C807       N1005   1.358   1_554  A
C807        N808   1.357       .  A
C807        C941   1.474       .  S
C809       N1009   1.363       .  A
C809        N814   1.362   1_556  A
C809        C837   1.480       .  S
N810       C1008   1.362       .  A
N810        C811   1.357       .  A
C811        N812   1.352       .  A
C811        C927   1.473       .  S
N812       C1012   1.354       .  A
C813       N1011   1.355   1_554  A
C813        N814   1.359       .  A
C813        C916   1.481       .  S
N815        C820   1.358   1_556  A
N815        C819   1.351   1_556  A
N815        H847   1.033       .  S
N816        C823   1.351       .  A
N816        C824   1.354       .  A
N817        C822   1.353       .  A
N817        C821   1.358       .  A
N817       H1246   1.029   1_545  S
N818        C825   1.355       .  A
N818        C826   1.350       .  A
C819        C827   1.387       .  A
C820        C836   1.423       .  A
C820        C828   1.388       .  A
C821        C829   1.387   1_556  A
C822        C837   1.424       .  A
C822        C830   1.390   1_556  A
C823        C835   1.420       .  A
C823        C831   1.388       .  A
C824       C1236   1.418       .  A
C824        C832   1.386       .  A
C825        C833   1.387       .  A
C825        C836   1.419   1_556  A
C826        C834   1.387       .  A
C826       C1235   1.415       .  A
C827        C828   1.376       .  A
C828        H840   1.081       .  S
C829        C830   1.377       .  A
C829        H841   1.082   1_655  S
C830        H842   1.082       .  S
C831        C832   1.373       .  A
C831        H843   1.083       .  S
C832        H844   1.082       .  S
C833        C834   1.372       .  A
C833        H845   1.082       .  S
C834        H846   1.083       .  S
C837       C1224   1.422   1_545  A
C838        C849   1.493       .  S
C838       C1222   1.418   1_545  A
H848       N1215   1.033       .  S
C849        N850   1.368   1_556  A
C849       N1053   1.366       .  A
N850        C851   1.364       .  A
C851       N1051   1.352   1_554  A
C851        C885   1.482       .  S
N852       C1050   1.355       .  A
N852        C853   1.354       .  A
C853        N854   1.360       .  A
C853        C899   1.477       .  S
N854       C1048   1.364       .  A
O855        C863   1.264       .  A
O855       Co875   1.973       .  S
O856        C864   1.262       .  A
O856       Co876   1.993       .  S
O857        C865   1.266       .  A
O857       Co877   1.924       .  S
O858        C866   1.278       .  A
O858       Co878   2.019       .  S
O859        C865   1.290       .  A
O859       Co876   2.087       .  S
O860        C866   1.273       .  A
O860       Co875   1.986       .  S
O861        C864   1.259       .  A
O861       Co878   1.989       .  S
O862        C863   1.265       .  A
O862       Co877   1.994       .  S
C863        C955   1.466       .  S
C864        C888   1.489       .  S
C865        C944   1.479       .  S
C866        C902   1.477       .  S
O867        C880   1.254       .  A
O867       Co875   1.977       .  S
O868        C881   1.276       .  A
O868       Co876   1.896       .  S
O869        C882   1.264       .  A
O869       Co877   1.998       .  S
O870        C883   1.277       .  A
O870       Co878   1.889       .  S
O871        C883   1.307       .  A
O871       Co876   2.091       .  S
O872        C882   1.261       .  A
O872       Co875   1.983       .  S
O873        C880   1.257       .  A
O873       Co878   2.018       .  S
O874        C881   1.298       .  A
O874       Co877   2.082       .  S
Co875       O879   2.037       .  S
Co876       O879   2.075       .  S
Co877       O879   2.030       .  S
Co878       O879   1.910       .  S
C880        C930   1.473       .  S
C881        C972   1.489       .  S
C882        C986   1.475       .  S
C883        C913   1.490       .  S
C884        C885   1.404       .  A
C884        C889   1.403       .  A
C884        H891   1.084       .  S
C885        C886   1.409       .  A
C886        C887   1.408       .  A
C886        N893   1.429       .  S
C887        C888   1.408       .  A
C887        H892   1.084       .  S
C888        C889   1.412       .  A
C889        N890   1.433       .  S
N890        O894   1.262       .  A
N890        O895   1.262       .  A
N893        O897   1.262       .  A
N893        O896   1.262       .  A
C898        C899   1.401       .  A
C898        C903   1.406       .  A
C898        H905   1.084       .  S
C899        C900   1.413       .  A
C900        C901   1.405       .  A
C900        N907   1.435       .  S
C901        C902   1.402       .  A
C901        H906   1.084       .  S
C902        C903   1.412       .  A
C903        N904   1.434       .  S
N904        O908   1.262       .  A
N904        O909   1.262       .  A
N907        O911   1.262       .  A
N907        O910   1.263       .  A
C912        C913   1.405       .  A
C912        C917   1.397       .  A
C912        H919   1.082       .  S
C913        C914   1.417       .  A
C914        C915   1.406       .  A
C914        N921   1.429       .  S
C915        C916   1.403       .  A
C915        H920   1.084       .  S
C916        C917   1.410       .  A
C917        N918   1.430       .  S
N918        O922   1.262       .  A
N918        O923   1.262       .  A
N921        O925   1.262       .  A
N921        O924   1.262       .  A
C926        C927   1.401       .  A
C926        C931   1.398       .  A
C926        H933   1.085       .  S
C927        C928   1.408       .  A
C928        C929   1.405       .  A
C928        N935   1.429       .  S
C929        C930   1.406       .  A
C929        H934   1.084       .  S
C930        C931   1.412       .  A
C931        N932   1.431       .  S
N932        O936   1.261       .  A
N932        O937   1.262       .  A
N935        O939   1.262       .  A
N935        O938   1.262       .  A
C940        C941   1.398       .  A
C940        C945   1.400       .  A
C940        H947   1.084       .  S
C941        C942   1.408       .  A
C942        C943   1.406       .  A
C942        N949   1.429       .  S
C943        C944   1.405       .  A
C943        H948   1.084       .  S
C944        C945   1.412       .  A
C945        N946   1.427       .  S
N946        O950   1.261       .  A
N946        O951   1.262       .  A
N949       O1152   1.262       .  A
N949       O1151   1.262       .  A
O952       N1148   1.262       .  A
O953       N1148   1.262       .  A
C954        C955   1.404       .  A
C954        C959   1.402       .  A
C954        H961   1.084       .  S
C955        C956   1.408       .  A
C956        C957   1.396       .  A
C956        N963   1.428       .  S
C957        C958   1.398       .  A
C957        H962   1.084       .  S
C958        C959   1.407       .  A
C959        N960   1.430       .  S
N960        O964   1.262       .  A
N960        O965   1.262       .  A
N963        O967   1.261       .  A
N963        O966   1.262       .  A
C968        C969   1.401       .  A
C968        C973   1.410       .  A
C968        H975   1.084       .  S
C969        C970   1.411       .  A
C970        C971   1.396       .  A
C970        N977   1.431       .  S
C971        C972   1.402       .  A
C971        H976   1.083       .  S
C972        C973   1.421       .  A
C973        N974   1.429       .  S
N974        O978   1.261       .  A
N974        O979   1.261       .  A
N977        O981   1.262   1_554  A
N977        O980   1.262       .  A
C982        C983   1.405       .  A
C982        C987   1.413       .  A
C982        H989   1.084       .  S
C983        C984   1.410       .  A
C984        C985   1.398       .  A
C984        N991   1.428       .  S
C985        C986   1.399       .  A
C985        H990   1.085       .  S
C986        C987   1.418       .  A
C987        N988   1.439       .  S
N988        O992   1.263       .  A
N988        O993   1.262       .  A
N991        O995   1.261       .  A
N991        O994   1.262       .  A
C996        N997   1.367       .  A
C996       C1035   1.493       .  S
N997        C998   1.362       .  A
C998       C1168   1.486       .  S
N999       C1000   1.350   1_554  A
C1000      N1001   1.359       .  A
C1000      C1182   1.476       .  S
C1002      N1007   1.358       .  A
C1002      C1034   1.467       .  S
N1003      C1004   1.356       .  A
C1004      N1005   1.358       .  A
C1004      C1157   1.471       .  S
C1006      N1007   1.356       .  A
C1006      C1140   1.472       .  S
C1008      N1013   1.359       .  A
C1008      C1036   1.468       .  S
N1009      C1010   1.360       .  A
C1010      N1011   1.356       .  A
C1010      C1126   1.480       .  S
C1012      N1013   1.354       .  A
C1012      C1115   1.475       .  S
N1014      C1019   1.357       .  A
N1014      C1018   1.352       .  A
N1014      H1046   1.032       .  S
N1015      C1022   1.349       .  A
N1015      C1023   1.353       .  A
N1016      C1021   1.350       .  A
N1016      C1020   1.356       .  A
N1016      H1445   1.032   1_545  S
N1017      C1024   1.355       .  A
N1017      C1025   1.352       .  A
C1018      C1026   1.387       .  A
C1019      C1035   1.423       .  A
C1019      C1027   1.389       .  A
C1020      C1028   1.387       .  A
C1021      C1036   1.416       .  A
C1021      C1029   1.389       .  A
C1022      C1034   1.419       .  A
C1022      C1030   1.389       .  A
C1023      C1435   1.418       .  A
C1023      C1031   1.385       .  A
C1024      C1032   1.387       .  A
C1024      C1035   1.421       .  A
C1025      C1033   1.387       .  A
C1025      C1434   1.418       .  A
C1026      C1027   1.377       .  A
C1027      H1039   1.082       .  S
C1028      C1029   1.375       .  A
C1028      H1040   1.082   1_655  S
C1029      H1041   1.083       .  S
C1030      C1031   1.373       .  A
C1030      H1042   1.082       .  S
C1031      H1043   1.083       .  S
C1032      C1033   1.375       .  A
C1032      H1044   1.082       .  S
C1033      H1045   1.083       .  S
C1036      C1423   1.415   1_545  A
C1037      C1048   1.487       .  S
C1037      C1421   1.413   1_545  A
H1047      N1414   1.033       .  S
C1048      N1049   1.365       .  A
N1049      C1050   1.361       .  A
C1050      C1084   1.479       .  S
N1051      C1052   1.352       .  A
C1052      N1053   1.360       .  A
C1052      C1098   1.477       .  S
O1054      C1062   1.264       .  A
O1054     Co1074   1.977       .  S
O1055      C1063   1.247       .  A
O1055     Co1075   1.930       .  S
O1056      C1064   1.271       .  A
O1056     Co1076   1.904       .  S
O1057      C1065   1.274       .  A
O1057     Co1077   2.018       .  S
O1058      C1064   1.291       .  A
O1058     Co1075   2.062       .  S
O1059      C1065   1.268       .  A
O1059     Co1074   1.991       .  S
O1060      C1063   1.268       .  A
O1060     Co1077   2.035       .  S
O1061      C1062   1.268       .  A
O1061     Co1076   1.990       .  S
C1062      C1154   1.471       .  S
C1063      C1087   1.491       .  S
C1064      C1143   1.467       .  S
C1065      C1101   1.482       .  S
O1066      C1079   1.266       .  A
O1066     Co1074   1.986       .  S
O1067      C1080   1.249       .  A
O1067     Co1075   1.943       .  S
O1068      C1081   1.270       .  A
O1068     Co1076   1.999       .  S
O1069      C1082   1.276       .  A
O1069     Co1077   1.915       .  S
O1070      C1082   1.290       .  A
O1070     Co1075   2.034       .  S
O1071      C1081   1.267       .  A
O1071     Co1074   1.985       .  S
O1072      C1079   1.270       .  A
O1072     Co1077   1.995       .  S
O1073      C1080   1.269       .  A
O1073     Co1076   2.042       .  S
Co1074     O1078   2.005       .  S
Co1075     O1078   2.067       .  S
Co1076     O1078   1.983       .  S
Co1077     O1078   1.985       .  S
C1079      C1129   1.479       .  S
C1080      C1171   1.497       .  S
C1081      C1185   1.468       .  S
C1082      C1112   1.483       .  S
C1083      C1084   1.399       .  A
C1083      C1088   1.400       .  A
C1083      H1090   1.084       .  S
C1084      C1085   1.408       .  A
C1085      C1086   1.410       .  A
C1085      N1092   1.429       .  S
C1086      C1087   1.410       .  A
C1086      H1091   1.084       .  S
C1087      C1088   1.419       .  A
C1088      N1089   1.436       .  S
N1089      O1093   1.263       .  A
N1089      O1094   1.262       .  A
N1092      O1096   1.261       .  A
N1092      O1095   1.262       .  A
C1097      C1098   1.400       .  A
C1097      C1102   1.408       .  A
C1097      H1104   1.084       .  S
C1098      C1099   1.410       .  A
C1099      C1100   1.404       .  A
C1099      N1106   1.432       .  S
C1100      C1101   1.402       .  A
C1100      H1105   1.084       .  S
C1101      C1102   1.417       .  A
C1102      N1103   1.435       .  S
N1103      O1107   1.262       .  A
N1103      O1108   1.262       .  A
N1106      O1110   1.262       .  A
N1106      O1109   1.262       .  A
C1111      C1112   1.408       .  A
C1111      C1116   1.385       .  A
C1111      H1118   1.083       .  S
C1112      C1113   1.412       .  A
C1113      C1114   1.408       .  A
C1113      N1120   1.428       .  S
C1114      C1115   1.408       .  A
C1114      H1119   1.084       .  S
C1115      C1116   1.407       .  A
C1116      N1117   1.432       .  S
N1117      O1121   1.262       .  A
N1117      O1122   1.262       .  A
N1120      O1124   1.262       .  A
N1120      O1123   1.262       .  A
C1125      C1126   1.401       .  A
C1125      C1130   1.399       .  A
C1125      H1132   1.084       .  S
C1126      C1127   1.411       .  A
C1127      C1128   1.409       .  A
C1127      N1134   1.429       .  S
C1128      C1129   1.408       .  A
C1128      H1133   1.084       .  S
C1129      C1130   1.411       .  A
C1130      N1131   1.430       .  S
N1131      O1135   1.262       .  A
N1131      O1136   1.262       .  A
N1134      O1138   1.262       .  A
N1134      O1137   1.262       .  A
C1139      C1140   1.400       .  A
C1139      C1144   1.397       .  A
C1139      H1146   1.082       .  S
C1140      C1141   1.410       .  A
C1141      C1142   1.404       .  A
C1141      N1148   1.431       .  S
C1142      C1143   1.404       .  A
C1142      H1147   1.084       .  S
C1143      C1144   1.406       .  A
C1144      N1145   1.430       .  S
N1145      O1149   1.262       .  A
N1145      O1150   1.262       .  A
C1153      C1154   1.407       .  A
C1153      C1158   1.405       .  A
C1153      H1160   1.084       .  S
C1154      C1155   1.408       .  A
C1155      C1156   1.400       .  A
C1155      N1162   1.427       .  S
C1156      C1157   1.399       .  A
C1156      H1161   1.084       .  S
C1157      C1158   1.408       .  A
C1158      N1159   1.430       .  S
N1159      O1163   1.262       .  A
N1159      O1164   1.262       .  A
N1162      O1166   1.261       .  A
N1162      O1165   1.262       .  A
C1167      C1168   1.404       .  A
C1167      C1172   1.412       .  A
C1167      H1174   1.084       .  S
C1168      C1169   1.409       .  A
C1169      C1170   1.402       .  A
C1169      N1176   1.430       .  S
C1170      C1171   1.409       .  A
C1170      H1175   1.084       .  S
C1171      C1172   1.418       .  A
C1172      N1173   1.428       .  S
N1173      O1177   1.261       .  A
N1173      O1178   1.261       .  A
N1176      O1180   1.262       .  A
N1176      O1179   1.262       .  A
C1181      C1182   1.403       .  A
C1181      C1186   1.407       .  A
C1181      H1188   1.084       .  S
C1182      C1183   1.412       .  A
C1183      C1184   1.396       .  A
C1183      N1190   1.429       .  S
C1184      C1185   1.397       .  A
C1184      H1189   1.085       .  S
C1185      C1186   1.415       .  A
C1186      N1187   1.435       .  S
N1187      O1191   1.262       .  A
N1187      O1192   1.262       .  A
N1190      O1194   1.262       .  A
N1190      O1193   1.262       .  A
C1195      N1196   1.369       .  A
C1195      N1399   1.365   1_554  A
C1195      C1234   1.492       .  S
N1196      C1197   1.364       .  A
C1197      N1397   1.355       .  A
C1197      C1367   1.488       .  S
N1198      C1396   1.352       .  A
N1198      C1199   1.348       .  A
C1199      N1200   1.355       .  A
C1199      C1381   1.468       .  S
N1200      C1394   1.364       .  A
C1201      N1401   1.359       .  A
C1201      N1206   1.358   1_556  A
C1201      C1233   1.470       .  S
N1202      C1400   1.359       .  A
N1202      C1203   1.356       .  A
C1203      N1204   1.359       .  A
C1203      C1356   1.471       .  S
N1204      C1404   1.357       .  A
C1205      N1403   1.354   1_554  A
C1205      N1206   1.356       .  A
C1205      C1339   1.470       .  S
C1207      N1407   1.363       .  A
C1207      N1212   1.360   1_556  A
C1207      C1235   1.470       .  S
N1208      C1406   1.362       .  A
N1208      C1209   1.358       .  A
C1209      N1210   1.356       .  A
C1209      C1325   1.477       .  S
N1210      C1410   1.355       .  A
C1211      N1409   1.354   1_554  A
C1211      N1212   1.354       .  A
C1211      C1314   1.473       .  S
N1213      C1218   1.357   1_556  A
N1213      C1217   1.353       .  A
N1213      H1245   1.030       .  S
N1214      C1221   1.350       .  A
N1214      C1222   1.354       .  A
N1215      C1220   1.351   1_556  A
N1215      C1219   1.358   1_556  A
N1216      C1223   1.356       .  A
N1216      C1224   1.354       .  A
C1217      C1225   1.388   1_556  A
C1218      C1234   1.424       .  A
C1218      C1226   1.389       .  A
C1219      C1227   1.387       .  A
C1220      C1235   1.419   1_554  A
C1220      C1228   1.389       .  A
C1221      C1233   1.419       .  A
C1221      C1229   1.389       .  A
C1222      C1230   1.385       .  A
C1223      C1231   1.387       .  A
C1223      C1234   1.424   1_556  A
C1224      C1232   1.387       .  A
C1225      C1226   1.377       .  A
C1226      H1238   1.082       .  S
C1227      C1228   1.376       .  A
C1227      H1239   1.082   1_655  S
C1228      H1240   1.083       .  S
C1229      C1230   1.373       .  A
C1229      H1241   1.082       .  S
C1230      H1242   1.082       .  S
C1231      C1232   1.376       .  A
C1231      H1243   1.082       .  S
C1232      H1244   1.083       .  S
C1236      C1247   1.489       .  S
C1247      N1248   1.366   1_556  A
C1247      N1451   1.364       .  A
N1248      C1249   1.362       .  A
C1249      N1449   1.355       .  A
C1249      C1283   1.481       .  S
N1250      C1448   1.353       .  A
N1250      C1251   1.354       .  A
C1251      N1252   1.361       .  A
C1251      C1297   1.479       .  S
N1252      C1446   1.366       .  A
O1253      C1261   1.263       .  A
O1253     Co1273   1.973       .  S
O1254      C1262   1.247       .  A
O1254     Co1274   1.926       .  S
O1255      C1263   1.270       .  A
O1255     Co1275   1.901       .  S
O1256      C1264   1.276       .  A
O1256     Co1276   2.022       .  S
O1257      C1263   1.293       .  A
O1257     Co1274   2.065       .  S
O1258      C1264   1.268       .  A
O1258     Co1273   1.988       .  S
O1259      C1262   1.270       .  A
O1259     Co1276   2.042       .  S
O1260      C1261   1.272       .  A
O1260     Co1275   1.999       .  S
C1261      C1353   1.475       .  S
C1262      C1286   1.492       .  S
C1263      C1342   1.464       .  S
C1264      C1300   1.483       .  S
O1265      C1278   1.262       .  A
O1265     Co1273   1.979       .  S
O1266      C1279   1.248       .  A
O1266     Co1274   1.940       .  S
O1267      C1280   1.267       .  A
O1267     Co1275   1.992       .  S
O1268      C1281   1.275       .  A
O1268     Co1276   1.912       .  S
O1269      C1281   1.293       .  A
O1269     Co1274   2.044       .  S
O1270      C1280   1.266       .  A
O1270     Co1273   1.985       .  S
O1271      C1278   1.268       .  A
O1271     Co1276   2.000       .  S
O1272      C1279   1.270       .  A
O1272     Co1275   2.048       .  S
Co1273     O1277   2.007       .  S
Co1274     O1277   2.067       .  S
Co1275     O1277   1.983       .  S
Co1276     O1277   1.983       .  S
C1278      C1328   1.478       .  S
C1279      C1370   1.500       .  S
C1280      C1384   1.466       .  S
C1281      C1311   1.483       .  S
C1282      C1283   1.399       .  A
C1282      C1287   1.401       .  A
C1282      H1289   1.084       .  S
C1283      C1284   1.409       .  A
C1284      C1285   1.411       .  A
C1284      N1291   1.429       .  S
C1285      C1286   1.410       .  A
C1285      H1290   1.084       .  S
C1286      C1287   1.421       .  A
C1287      N1288   1.437       .  S
N1288      O1292   1.263       .  A
N1288      O1293   1.262       .  A
N1291      O1295   1.261       .  A
N1291      O1294   1.262       .  A
C1296      C1297   1.401       .  A
C1296      C1301   1.410       .  A
C1296      H1303   1.084       .  S
C1297      C1298   1.410       .  A
C1298      C1299   1.403       .  A
C1298      N1305   1.431       .  S
C1299      C1300   1.402       .  A
C1299      H1304   1.084       .  S
C1300      C1301   1.417       .  A
C1301      N1302   1.435       .  S
N1302      O1306   1.262       .  A
N1302      O1307   1.262       .  A
N1305      O1309   1.262       .  A
N1305      O1308   1.262       .  A
C1310      C1311   1.405       .  A
C1310      C1315   1.385       .  A
C1310      H1317   1.082       .  S
C1311      C1312   1.412       .  A
C1312      C1313   1.410       .  A
C1312      N1319   1.428       .  S
C1313      C1314   1.408       .  A
C1313      H1318   1.083       .  S
C1314      C1315   1.405       .  A
C1315      N1316   1.431       .  S
N1316      O1320   1.262       .  A
N1316      O1321   1.262       .  A
N1319      O1323   1.262       .  A
N1319      O1322   1.262       .  A
C1324      C1325   1.399       .  A
C1324      C1329   1.397       .  A
C1324      H1331   1.084       .  S
C1325      C1326   1.410       .  A
C1326      C1327   1.409       .  A
C1326      N1333   1.429       .  S
C1327      C1328   1.408       .  A
C1327      H1332   1.084       .  S
C1328      C1329   1.415       .  A
C1329      N1330   1.431       .  S
N1330      O1334   1.261       .  A
N1330      O1335   1.262       .  A
N1333      O1337   1.262       .  A
N1333      O1336   1.262       .  A
C1338      C1339   1.403       .  A
C1338      C1343   1.397       .  A
C1338      H1345   1.084       .  S
C1339      C1340   1.410       .  A
C1340      C1341   1.403       .  A
C1340      N1347   1.432       .  S
C1341      C1342   1.403       .  A
C1341      H1346   1.084       .  S
C1342      C1343   1.404       .  A
C1343      N1344   1.429       .  S
N1344      O1348   1.262       .  A
N1344      O1349   1.262       .  A
N1347      O1550   1.262       .  A
N1347      O1549   1.262       .  A
O1350      N1546   1.262       .  A
O1351      N1546   1.262       .  A
C1352      C1353   1.409       .  A
C1352      C1357   1.409       .  A
C1352      H1359   1.084       .  S
C1353      C1354   1.411       .  A
C1354      C1355   1.397       .  A
C1354      N1361   1.427       .  S
C1355      C1356   1.395       .  A
C1355      H1360   1.084       .  S
C1356      C1357   1.409       .  A
C1357      N1358   1.430       .  S
N1358      O1362   1.262       .  A
N1358      O1363   1.262       .  A
N1361      O1365   1.261       .  A
N1361      O1364   1.262       .  A
C1366      C1367   1.404       .  A
C1366      C1371   1.414       .  A
C1366      H1373   1.084       .  S
C1367      C1368   1.410       .  A
C1368      C1369   1.400       .  A
C1368      N1375   1.431       .  S
C1369      C1370   1.409       .  A
C1369      H1374   1.082       .  S
C1370      C1371   1.418       .  A
C1371      N1372   1.428       .  S
N1372      O1376   1.261       .  A
N1372      O1377   1.261       .  A
N1375      O1379   1.262       .  A
N1375      O1378   1.262       .  A
C1380      C1381   1.402       .  A
C1380      C1385   1.406       .  A
C1380      H1387   1.084       .  S
C1381      C1382   1.408       .  A
C1382      C1383   1.395       .  A
C1382      N1389   1.429       .  S
C1383      C1384   1.399       .  A
C1383      H1388   1.085       .  S
C1384      C1385   1.417       .  A
C1385      N1386   1.438       .  S
N1386      O1390   1.263       .  A
N1386      O1391   1.262       .  A
N1389      O1393   1.262       .  A
N1389      O1392   1.262       .  A
C1394      N1395   1.370       .  A
C1394      C1433   1.489       .  S
N1395      C1396   1.364       .  A
C1396      C1566   1.485       .  S
N1397      C1398   1.354   1_554  A
C1398      N1399   1.359       .  A
C1398      C1580   1.477       .  S
C1400      N1405   1.359       .  A
C1400      C1432   1.473       .  S
N1401      C1402   1.355       .  A
C1402      N1403   1.354       .  A
C1402      C1555   1.463       .  S
C1404      N1405   1.356       .  A
C1404      C1538   1.470       .  S
C1406      N1411   1.362       .  A
C1406      C1434   1.476       .  S
N1407      C1408   1.358       .  A
C1408      N1409   1.353       .  A
C1408      C1524   1.479       .  S
C1410      N1411   1.359       .  A
C1410      C1513   1.486       .  S
N1412      C1417   1.356       .  A
N1412      C1416   1.351       .  A
N1412      H1444   1.030       .  S
N1413      C1420   1.349       .  A
N1413      C1421   1.354       .  A
N1414      C1419   1.352       .  A
N1414      C1418   1.358       .  A
N1415      C1422   1.354       .  A
N1415      C1423   1.351       .  A
C1416      C1424   1.387       .  A
C1417      C1433   1.422       .  A
C1417      C1425   1.388       .  A
C1418      C1426   1.387       .  A
C1419      C1434   1.421       .  A
C1419      C1427   1.389       .  A
C1420      C1432   1.416       .  A
C1420      C1428   1.390       .  A
C1421      C1429   1.385       .  A
C1422      C1430   1.388       .  A
C1422      C1433   1.421       .  A
C1423      C1431   1.386       .  A
C1424      C1425   1.377       .  A
C1425      H1437   1.081       .  S
C1426      C1427   1.376       .  A
C1426      H1438   1.082   1_655  S
C1427      H1439   1.082       .  S
C1428      C1429   1.371       .  A
C1428      H1440   1.082       .  S
C1429      H1441   1.083       .  S
C1430      C1431   1.372       .  A
C1430      H1442   1.082       .  S
C1431      H1443   1.083       .  S
C1435      C1446   1.488       .  S
C1446      N1447   1.365       .  A
N1447      C1448   1.360       .  A
C1448      C1482   1.474       .  S
N1449      C1450   1.354   1_554  A
C1450      N1451   1.359       .  A
C1450      C1496   1.476       .  S
O1452      C1460   1.260       .  A
O1452     Co1472   1.962       .  S
O1453      C1461   1.260       .  A
O1453     Co1473   1.987       .  S
O1454      C1462   1.266       .  A
O1454     Co1474   1.923       .  S
O1455      C1463   1.276       .  A
O1455     Co1475   2.014       .  S
O1456      C1462   1.294       .  A
O1456     Co1473   2.091       .  S
O1457      C1463   1.271       .  A
O1457     Co1472   1.985       .  S
O1458      C1461   1.256       .  A
O1458     Co1475   1.985       .  S
O1459      C1460   1.263       .  A
O1459     Co1474   1.999       .  S
C1460      C1552   1.467       .  S
C1461      C1485   1.480       .  S
C1462      C1541   1.486       .  S
C1463      C1499   1.474       .  S
O1464      C1477   1.257       .  A
O1464     Co1472   1.979       .  S
O1465      C1478   1.274       .  A
O1465     Co1473   1.895       .  S
O1466      C1479   1.263       .  A
O1466     Co1474   1.985       .  S
O1467      C1480   1.276       .  A
O1467     Co1475   1.887       .  S
O1468      C1480   1.306       .  A
O1468     Co1473   2.097       .  S
O1469      C1479   1.263       .  A
O1469     Co1472   1.982       .  S
O1470      C1477   1.263       .  A
O1470     Co1475   2.014       .  S
O1471      C1478   1.299       .  A
O1471     Co1474   2.085       .  S
Co1472     O1476   2.040       .  S
Co1473     O1476   2.072       .  S
Co1474     O1476   2.038       .  S
Co1475     O1476   1.924       .  S
C1477      C1527   1.478       .  S
C1478      C1569   1.492       .  S
C1479      C1583   1.471       .  S
C1480      C1510   1.491       .  S
C1481      C1482   1.402       .  A
C1481      C1486   1.401       .  A
C1481      H1488   1.084       .  S
C1482      C1483   1.408       .  A
C1483      C1484   1.405       .  A
C1483      N1490   1.428       .  S
C1484      C1485   1.405       .  A
C1484      H1489   1.084       .  S
C1485      C1486   1.408       .  A
C1486      N1487   1.429       .  S
N1487      O1491   1.262       .  A
N1487      O1492   1.262       .  A
N1490      O1494   1.261       .  A
N1490      O1493   1.262       .  A
C1495      C1496   1.402       .  A
C1495      C1500   1.404       .  A
C1495      H1502   1.084       .  S
C1496      C1497   1.414       .  A
C1497      C1498   1.404       .  A
C1497      N1504   1.436       .  S
C1498      C1499   1.401       .  A
C1498      H1503   1.084       .  S
C1499      C1500   1.409       .  A
C1500      N1501   1.430       .  S
N1501      O1505   1.262       .  A
N1501      O1506   1.261       .  A
N1504      O1508   1.262       .  A
N1504      O1507   1.263       .  A
C1509      C1510   1.405       .  A
C1509      C1514   1.397       .  A
C1509      H1516   1.082       .  S
C1510      C1511   1.416       .  A
C1511      C1512   1.406       .  A
C1511      N1518   1.429       .  S
C1512      C1513   1.405       .  A
C1512      H1517   1.084       .  S
C1513      C1514   1.413       .  A
C1514      N1515   1.430       .  S
N1515      O1519   1.262       .  A
N1515      O1520   1.262       .  A
N1518      O1522   1.262       .  A
N1518      O1521   1.262       .  A
C1523      C1524   1.400       .  A
C1523      C1528   1.398       .  A
C1523      H1530   1.084       .  S
C1524      C1525   1.409       .  A
C1525      C1526   1.408       .  A
C1525      N1532   1.429       .  S
C1526      C1527   1.408       .  A
C1526      H1531   1.084       .  S
C1527      C1528   1.415       .  A
C1528      N1529   1.432       .  S
N1529      O1533   1.261       .  A
N1529      O1534   1.262       .  A
N1532      O1536   1.262       .  A
N1532      O1535   1.262       .  A
C1537      C1538   1.400       .  A
C1537      C1542   1.404       .  A
C1537      H1544   1.084       .  S
C1538      C1539   1.404       .  A
C1539      C1540   1.401       .  A
C1539      N1546   1.429       .  S
C1540      C1541   1.404       .  A
C1540      H1545   1.078       .  S
C1541      C1542   1.415       .  A
C1542      N1543   1.428       .  S
N1543      O1547   1.262       .  A
N1543      O1548   1.262       .  A
C1551      C1552   1.404       .  A
C1551      C1556   1.401       .  A
C1551      H1558   1.084       .  S
C1552      C1553   1.408       .  A
C1553      C1554   1.397       .  A
C1553      N1560   1.427       .  S
C1554      C1555   1.399       .  A
C1554      H1559   1.084       .  S
C1555      C1556   1.407       .  A
C1556      N1557   1.430       .  S
N1557      O1561   1.262       .  A
N1557      O1562   1.262       .  A
N1560      O1564   1.261       .  A
N1560      O1563   1.262       .  A
C1565      C1566   1.403       .  A
C1565      C1570   1.412       .  A
C1565      H1572   1.084       .  S
C1566      C1567   1.413       .  A
C1567      C1568   1.395       .  A
C1567      N1574   1.433       .  S
C1568      C1569   1.403       .  A
C1568      H1573   1.083       .  S
C1569      C1570   1.422       .  A
C1570      N1571   1.431       .  S
N1571      O1575   1.262       .  A
N1571      O1576   1.260       .  A
N1574      O1578   1.262       .  A
N1574      O1577   1.262       .  A
C1579      C1580   1.403       .  A
C1579      C1584   1.410       .  A
C1579      H1586   1.084       .  S
C1580      C1581   1.408       .  A
C1581      C1582   1.398       .  A
C1581      N1588   1.428       .  S
C1582      C1583   1.400       .  A
C1582      H1587   1.085       .  S
C1583      C1584   1.416       .  A
C1584      N1585   1.438       .  S
N1585      O1589   1.263       .  A
N1585      O1590   1.262       .  A
N1588      O1592   1.261       .  A
N1588      O1591   1.262       .  A
