geometry optimzed in LAMMPS
_audit_creation_date              2020-11-30 
_audit_creation_method            'lammps2cif' 
_symmetry_space_group_name_H-M    'P1' 
_symmetry_Int_Tables_number       1 
_symmetry_cell_setting            triclinic 
loop_ 
_symmetry_equiv_pos_as_xyz 
  x,y,z 
_cell_length_a                    53.49522453323489 
_cell_length_b                    25.169271731301517 
_cell_length_c                    30.509128424137067 
_cell_angle_alpha                 93.51113934269287 
_cell_angle_beta                  103.3493721943081 
_cell_angle_gamma                 89.81129515992168 
loop_ 
_atom_site_label 
_atom_site_type_symbol 
_atom_site_fract_x 
_atom_site_fract_y 
_atom_site_fract_z 
_atom_site_charge 
O1          O  0.14112727  0.79425398  0.33045375    -0.75490
O2          O  0.17607570  0.77252188  0.30213290    -0.54400
C3          C  0.15889333  0.80463564  0.31008709     0.78240
O4          O  0.17675656  0.65158526  0.51220034    -0.60090
O5          O  0.14237471  0.59481905  0.49350159    -0.53120
C6          C  0.15931628  0.62277403  0.52255139     0.70260
O7          O  0.22472653  0.73193909  0.43070655    -0.74650
O8          O  0.22124266  0.73295196  0.35483219    -0.55210
C9          C  0.23242821  0.74528620  0.39597299     0.76260
O10         O  0.08886107  0.69404391  0.39423804    -0.59790
O11         O  0.09654737  0.61734415  0.43133958    -0.52910
C12         C  0.08288374  0.65719316  0.41770117     0.72850
Zr13       Zr  0.12590606  0.72095096  0.36587362     2.54710
O14         O  0.12493751  0.79351650  0.42195762    -0.80360
O15         O  0.08795014  0.75673963  0.31660528    -0.93770
Zr16       Zr  0.19106282  0.67634692  0.44564385     2.64680
O17         O  0.19304305  0.75845191  0.49291399    -0.98730
O18         O  0.22967822  0.64326271  0.49486681    -0.80790
O19         O  0.17138948  0.72457670  0.38291075    -0.84150
O20         O  0.14555777  0.67497133  0.42973030    -2.18860
O21         O  0.08742129  0.57784015  0.30950575    -0.67540
O22         O  0.09789303  0.52940965  0.37000842    -0.52100
C23         C  0.08393715  0.53746975  0.33076906     0.71230
O24         O  0.22024594  0.55646753  0.31514521    -0.60440
O25         O  0.21631491  0.63908433  0.28759997    -0.52420
C26         C  0.22583017  0.59225049  0.29021551     0.73040
O27         O  0.18775901  0.49570861  0.43203293    -0.71840
O28         O  0.14668796  0.49948277  0.44077770    -0.50520
C29         C  0.16975021  0.48290644  0.45147837     0.74420
O30         O  0.13605896  0.63035733  0.21843901    -0.67170
O31         O  0.17088583  0.68509400  0.23878867    -0.54370
C32         C  0.15243765  0.66255823  0.20904036     0.72800
Zr33       Zr  0.12649629  0.59174608  0.28452154     2.77540
O34         O  0.12858941  0.50224375  0.25031890    -0.97920
O35         O  0.09033978  0.59686491  0.21984069    -0.78740
Zr36       Zr  0.19110557  0.54432031  0.36552751     2.70070
O37         O  0.18167872  0.45717526  0.32586012    -0.79990
O38         O  0.23412233  0.51125970  0.39535013    -0.99070
Zr39       Zr  0.18379610  0.68192684  0.31962744     2.21500
Zr40       Zr  0.13378179  0.58376563  0.41143327     2.11130
O41         O  0.14553646  0.54032016  0.34706729    -2.47760
O42         O  0.17179767  0.59149755  0.30118100    -0.79780
O43         O  0.11360418  0.63135027  0.34803752    -0.71980
O44         O  0.20465637  0.63446151  0.38293768    -2.32930
O45         O  0.13822876  0.68250466  0.30119523    -2.29140
O46         O  0.17926997  0.58592974  0.42934622    -0.73730
H47         H  0.13926308  0.68923550  0.45521374     0.78260
H48         H  0.22312383  0.63629757  0.38755642     0.79350
H49         H  0.13951716  0.50382345  0.34270095     0.81580
H50         H  0.13131444  0.70371641  0.27595957     0.79180
H51         H  0.23204411  0.60733767  0.48138904     0.42220
H52         H  0.23759290  0.52037106  0.42824327     0.41190
H53         H  0.18195562  0.46321573  0.29420767     0.40870
H54         H  0.11934376  0.47903885  0.26645650     0.38800
H55         H  0.08202831  0.63101660  0.22547350     0.41930
H56         H  0.08829537  0.79518885  0.32583130     0.36720
H57         H  0.14287881  0.80698560  0.43091013     0.42830
H58         H  0.17597764  0.76093659  0.50027573     0.39250
H59         H  0.11737268  0.50313518  0.21964166     0.44170
H60         H  0.09176080  0.75519340  0.28630121     0.42890
H61         H  0.20500671  0.75069434  0.52171911     0.43030
H62         H  0.23217135  0.47201196  0.39230590     0.43380
O63         O  0.09109021  0.69920686  0.91322522    -0.75490
O64         O  0.11983001  0.76288065  0.95134199    -0.54400
C65         C  0.09788864  0.73782237  0.94287044     0.78240
O66         O  0.14892806  0.50525869  0.90280099    -0.60090
O67         O  0.17035789  0.49225519  0.84930231    -0.53120
C68         C  0.16509656  0.47933205  0.88632726     0.70260
O69         O  0.14727993  0.63922339  0.99942874    -0.74650
O70         O  0.16297642  0.72387025  0.00700814    -0.55210
C71         C  0.15423003  0.68329764  0.02257019     0.76260
O72         O  0.08401140  0.58422278  0.79614756    -0.59790
O73         O  0.11586963  0.53232627  0.77888987    -0.52910
C74         C  0.09225869  0.54398002  0.77565590     0.72850
Zr75       Zr  0.10449933  0.65629701  0.85031031     2.54710
O76         O  0.06461012  0.62164878  0.86348471    -0.80360
O77         O  0.07700814  0.71683879  0.80186084    -0.93770
Zr78       Zr  0.16170927  0.59163559  0.93823045     2.64680
O79         O  0.15140712  0.53350205  0.99288352    -0.98730
O80         O  0.20229140  0.57430805  0.99000352    -0.80790
O81         O  0.13344391  0.66331890  0.92316631    -0.84150
O82         O  0.12987747  0.57983340  0.86739794    -2.18860
O83         O  0.15718264  0.68208557  0.73076060    -0.67540
O84         O  0.15766419  0.59223034  0.73521170    -0.52100
C85         C  0.15836945  0.63450003  0.71365922     0.71230
O86         O  0.21353974  0.75715495  0.89779568    -0.60440
O87         O  0.20509848  0.77513884  0.96370806    -0.52420
C88         C  0.22152491  0.77357359  0.93864635     0.73040
O89         O  0.22459746  0.61131972  0.82271108    -0.71840
O90         O  0.19205499  0.55840940  0.78206764    -0.50520
C91         C  0.21515768  0.57588463  0.79153598     0.74420
O92         O  0.15804269  0.81978439  0.83199643    -0.67170
O93         O  0.16136088  0.82971079  0.90812323    -0.54370
C94         C  0.16103492  0.84780478  0.86967741     0.72800
Zr95       Zr  0.15278520  0.72847901  0.80083478     2.77540
O96         O  0.18951808  0.76143101  0.77572198    -0.97920
O97         O  0.11561218  0.77231772  0.75653719    -0.78740
Zr98       Zr  0.21016997  0.66280603  0.88160154     2.70070
O99         O  0.23589276  0.68459571  0.82851869    -0.79990
O100        O  0.24507187  0.64198358  0.94495678    -0.99070
Zr101      Zr  0.16051344  0.74015706  0.92880821     2.21500
Zr102      Zr  0.15539879  0.57527042  0.81261889     2.11130
O103        O  0.16685707  0.65808883  0.84664431    -2.47760
O104        O  0.18372899  0.73838966  0.86932419    -0.79780
O105        O  0.12745181  0.64914530  0.79194525    -0.71980
O106        O  0.18959807  0.66654661  0.94301866    -2.32930
O107        O  0.12891278  0.73688713  0.85691201    -2.29140
O108        O  0.18730907  0.58192044  0.88229169    -0.73730
H109        H  0.11733416  0.55149618  0.86448268     0.78260
H110        H  0.20158433  0.67163232  0.97196902     0.79350
H111        H  0.15784162  0.66094747  0.87028919     0.81580
H112        H  0.11809614  0.76789589  0.85403413     0.79180
H113        H  0.20013999  0.58844961  0.01990125     0.42220
H114        H  0.25952043  0.63189539  0.93099739     0.41190
H115        H  0.23539310  0.72384096  0.82755084     0.40870
H116        H  0.19862309  0.72949571  0.76747474     0.38800
H117        H  0.10713536  0.74448427  0.73363043     0.41930
H118        H  0.06664458  0.73450808  0.82143731     0.36720
H119        H  0.07001789  0.59200772  0.88336181     0.42830
H120        H  0.13415233  0.51846971  0.97869635     0.39250
H121        H  0.18211211  0.77781836  0.74696256     0.44170
H122        H  0.06463722  0.69326621  0.78016502     0.42890
H123        H  0.16319779  0.50302059  0.99374633     0.43030
H124        H  0.23970185  0.60806180  0.95493972     0.43380
O125        O  0.99496036  0.82203361  0.05020756    -0.75490
O126        O  0.00225588  0.86799706  0.99512306    -0.54400
C127        C  0.00971221  0.85212897  0.03553263     0.78240
O128        O  0.40933897  0.67357897  0.02244933    -0.60090
O129        O  0.38031919  0.72519072  0.05008615    -0.53120
C130        C  0.38969095  0.67884070  0.03927495     0.70260
O131        O  0.48539534  0.72847731  0.99304754    -0.74650
O132        O  0.98261435  0.77278008  0.93072740    -0.55210
C133        C  0.99584931  0.74799714  0.96313727     0.76260
O134        O  0.44422322  0.85107099  0.14208756    -0.59790
O135        O  0.40217187  0.82502486  0.12608268    -0.52910
C136        C  0.42386130  0.83655773  0.15366086     0.72850
Zr137      Zr  0.45980866  0.86395402  0.07490868     2.54710
O138        O  0.49221529  0.85475992  0.14451959    -0.80360
O139        O  0.47622298  0.95399838  0.09752025    -0.93770
Zr140      Zr  0.43994351  0.72957768  0.00211303     2.64680
O141        O  0.46333065  0.67538493  0.06137983    -0.98730
O142        O  0.43693661  0.65554553  0.94583143    -0.80790
O143        O  0.46565482  0.80444242  0.01561379    -0.84150
O144        O  0.43234081  0.78823091  0.06326479    -2.18860
O145        O  0.37681885  0.97160022  0.00749706    -0.67540
O146        O  0.37267898  0.91714664  0.06278133    -0.52100
C147        C  0.36947297  0.96256194  0.04299468     0.71230
O148        O  0.40033504  0.81958257  0.84977652    -0.60440
O149        O  0.44329962  0.83941437  0.86552447    -0.52420
C150        C  0.42131235  0.82992223  0.83802224     0.73040
O151        O  0.34334641  0.79988113  0.93839550    -0.71840
O152        O  0.34500203  0.81401324  0.01369186    -0.50520
C153        C  0.33267346  0.80440027  0.97274584     0.74420
O154        O  0.43776466  0.98666115  0.93482555    -0.67170
O155        O  0.46793230  0.92972433  0.91800319    -0.54370
C156        C  0.45667648  0.97483254  0.91632190     0.72800
Zr157      Zr  0.41322379  0.94260446  0.98249694     2.77540
O158        O  0.38557888  0.99141059  0.92373004    -0.97920
O159        O  0.42870849  0.02254186  0.02989808    -0.78740
Zr160      Zr  0.38617858  0.80634832  0.91843925     2.70070
O161        O  0.35199470  0.83964951  0.85964531    -0.79990
O162        O  0.37606270  0.71591896  0.88628554    -0.99070
Zr163      Zr  0.45852990  0.84770358  0.94732198     2.21500
Zr164      Zr  0.39006659  0.82481198  0.04398204     2.11130
O165        O  0.38282089  0.87102543  0.97547456    -2.47760
O166        O  0.41578386  0.87885201  0.92514662    -0.79780
O167        O  0.41859435  0.89986402  0.05265739    -0.71980
O168        O  0.42929367  0.77319165  0.93391254    -2.32930
O169        O  0.45499840  0.91094187  0.00739059    -2.29140
O170        O  0.39683749  0.76244479  0.98564430    -0.73730
H171        H  0.43476111  0.76808457  0.08981817     0.78260
H172        H  0.43188771  0.74998467  0.90896982     0.79350
H173        H  0.36570757  0.88534515  0.96825537     0.81580
H174        H  0.46751668  0.93938045  0.01086704     0.79180
H175        H  0.41825643  0.64919253  0.93421614     0.42220
H176        H  0.36953185  0.69797545  0.90947196     0.41190
H177        H  0.35293642  0.87879727  0.86558643     0.40870
H178        H  0.36872747  0.97279081  0.91728223     0.38800
H179        H  0.42920046  0.01268973  0.06099459     0.41930
H180        H  0.49345464  0.94922497  0.11722214     0.36720
H181        H  0.99434269  0.81589951  0.14687179     0.42830
H182        H  0.45363125  0.67808695  0.08540424     0.39250
H183        H  0.38269377  0.02619555  0.93866967     0.44170
H184        H  0.46572279  0.96801229  0.11835845     0.42890
H185        H  0.46042845  0.63826115  0.04844707     0.43030
H186        H  0.36072434  0.71966155  0.86136673     0.43380
O187        O  0.99772462  0.80454616  0.56690025    -0.75490
O188        O  0.01032470  0.84526266  0.51364997    -0.54400
C189        C  0.01421196  0.83328716  0.55518550     0.78240
O190        O  0.40310624  0.67118468  0.52140859    -0.60090
O191        O  0.37383280  0.72909498  0.54106767    -0.53120
C192        C  0.38249144  0.68080405  0.53410275     0.70260
O193        O  0.47480061  0.68587658  0.48243293    -0.74650
O194        O  0.99164106  0.75134662  0.44880156    -0.55210
C195        C  0.99109306  0.70433815  0.46218313     0.76260
O196        O  0.43717512  0.84158503  0.63946119    -0.59790
O197        O  0.39386439  0.83075662  0.61529141    -0.52910
C198        C  0.41472369  0.83541806  0.64660070     0.72850
Zr199      Zr  0.46013030  0.84867122  0.58086650     2.54710
O200        O  0.48594965  0.82951120  0.65485362    -0.80360
O201        O  0.47917641  0.93458267  0.61122638    -0.93770
Zr202      Zr  0.43687362  0.71957377  0.50529813     2.64680
O203        O  0.45990676  0.67888229  0.57327340    -0.98730
O204        O  0.42772084  0.63516083  0.46105743    -0.80790
O205        O  0.46840638  0.78523802  0.52555476    -0.83350
O206        O  0.42795804  0.78124778  0.56221367    -2.18860
O207        O  0.38515898  0.97107138  0.49493143    -0.67540
O208        O  0.37012753  0.91954937  0.54254736    -0.52100
C209        C  0.37167652  0.96460083  0.52346538     0.71230
O210        O  0.41654103  0.81146900  0.35058118    -0.60440
O211        O  0.45992765  0.82473376  0.37577384    -0.52420
C212        C  0.43903987  0.81904565  0.34430146     0.73040
O213        O  0.35170035  0.80149788  0.41632126    -0.71840
O214        O  0.34575577  0.81537127  0.48773341    -0.50520
C215        C  0.33751955  0.80573892  0.44505571     0.74420
O216        O  0.44868523  0.96261818  0.42925533    -0.67170
O217        O  0.48311190  0.90873278  0.43362210    -0.54370
C218        C  0.46990380  0.94897009  0.41863516     0.72800
Zr219      Zr  0.42447132  0.93555452  0.48420152     2.77540
O220        O  0.41068512  0.01312649  0.44078725    -0.97920
O221        O  0.44673079  0.00194688  0.54111669    -0.78740
Zr222      Zr  0.39642006  0.80441936  0.41238427     2.70070
O223        O  0.36861268  0.84658967  0.34970593    -0.79990
O224        O  0.38569871  0.71598238  0.37600385    -0.99070
Zr225      Zr  0.46859368  0.82957683  0.45915739     2.21500
Zr226      Zr  0.38842025  0.82566749  0.53324540     2.11130
O227        O  0.39027723  0.87079456  0.46656898    -2.47760
O228        O  0.42904955  0.87081170  0.42846095    -0.79780
O229        O  0.42155951  0.89307309  0.55111167    -0.71980
O230        O  0.43621581  0.76190504  0.43836131    -2.32930
O231        O  0.46343711  0.89539699  0.51649330    -2.29140
O232        O  0.39665363  0.76058039  0.47797761    -0.73730
H233        H  0.42691654  0.76141304  0.58784226     0.78260
H234        H  0.43972234  0.73699734  0.41520463     0.79350
H235        H  0.37411118  0.88747619  0.45432375     0.81580
H236        H  0.47742255  0.92101612  0.52337692     0.79180
H237        H  0.42208149  0.64508605  0.42941835     0.42220
H238        H  0.37733946  0.69762989  0.39672102     0.41190
H239        H  0.37188816  0.88519637  0.35692729     0.40870
H240        H  0.39330113  0.00427348  0.42207644     0.38800
H241        H  0.43724295  0.00208833  0.56539909     0.41930
H242        H  0.46729181  0.94986155  0.62905007     0.36720
H243        H  0.98608798  0.79004972  0.65467120     0.42830
H244        H  0.44690107  0.67347105  0.59101231     0.39250
H245        H  0.40814157  0.04202630  0.46281823     0.44170
H246        H  0.49476035  0.92600209  0.63414925     0.42890
H247        H  0.46379803  0.64251379  0.56262912     0.43030
H248        H  0.37161484  0.72192959  0.34941064     0.43380
O249        O  0.29911086  0.50250511  0.15178461    -0.75490
O250        O  0.26771109  0.44990198  0.16569943    -0.54400
C251        C  0.28041823  0.49347927  0.17067954     0.78240
O252        O  0.30057864  0.33046063  0.94691107    -0.60090
O253        O  0.34304049  0.31133589  0.97079652    -0.53120
C254        C  0.32263459  0.31813224  0.93992082     0.70260
O255        O  0.23631396  0.35013500  0.01388314    -0.74650
O256        O  0.23741322  0.40267768  0.07678014    -0.55210
C257        C  0.22718351  0.38700220  0.03528229     0.76260
O258        O  0.36678794  0.44731480  0.10152656    -0.59790
O259        O  0.36967571  0.40964543  0.03641615    -0.52910
C260        C  0.37202395  0.45219537  0.06363819     0.72850
Zr261      Zr  0.32230665  0.45362340  0.09996769     2.54710
O262        O  0.31044042  0.51198054  0.03786703    -0.80360
O263        O  0.34164346  0.53931929  0.13140598    -0.93770
Zr264      Zr  0.27991789  0.34950729  0.00858445     2.64680
O265        O  0.26746550  0.42294255  0.96008503    -0.98730
O266        O  0.25356837  0.29170734  0.94890276    -0.80790
O267        O  0.28149592  0.41498355  0.06993555    -0.84150
O268        O  0.31975697  0.39356767  0.03403767    -2.18860
O269        O  0.39299463  0.32116676  0.16415347    -0.67540
O270        O  0.39411190  0.31623999  0.08967004    -0.52100
C271        C  0.40520054  0.31652848  0.13165053     0.71230
O272        O  0.25428243  0.22766736  0.11378401    -0.60440
O273        O  0.24205365  0.30935419  0.13776982    -0.52420
C274        C  0.23822947  0.25974244  0.12852744     0.73040
O275        O  0.31798077  0.19330544  0.03671819    -0.71840
O276        O  0.35836535  0.22289089  0.04737911    -0.50520
C277        C  0.34198911  0.18377198  0.04433553     0.74420
O278        O  0.32472675  0.33827338  0.23536272    -0.67170
O279        O  0.28193205  0.35512161  0.21162458    -0.54370
C280        C  0.30207238  0.34521990  0.24247895     0.72800
Zr281      Zr  0.34782487  0.33374295  0.17547864     2.77540
O282        O  0.36442063  0.25968816  0.22112343    -0.97920
O283        O  0.37310366  0.39763364  0.23118281    -0.78740
Zr284      Zr  0.29806930  0.23501505  0.09315048     2.70070
O285        O  0.31940691  0.17871110  0.15237476    -0.79990
O286        O  0.27568767  0.15129804  0.06465745    -0.99070
Zr287      Zr  0.27502618  0.36649194  0.13066488     2.21500
Zr288      Zr  0.34981753  0.32217019  0.05225169     2.11130
O289        O  0.34111911  0.27249309  0.11305452    -2.47760
O290        O  0.30492780  0.29738914  0.15485063    -0.79780
O291        O  0.35337729  0.38412586  0.11648506    -0.71980
O292        O  0.26994333  0.30312132  0.06799806    -2.32930
O293        O  0.31708618  0.40325322  0.15926675    -2.29140
O294        O  0.30812003  0.27946716  0.03098995    -0.73730
H295        H  0.32301220  0.41276463  0.00943096     0.78260
H296        H  0.25318417  0.28679702  0.05840774     0.79350
H297        H  0.35343587  0.24475366  0.12169709     0.81580
H298        H  0.31852467  0.42468302  0.18699850     0.79180
H299        H  0.25719534  0.25533425  0.95920974     0.42220
H300        H  0.27160378  0.15237249  0.03137229     0.41190
H301        H  0.30973482  0.18429947  0.17627338     0.40870
H302        H  0.37405442  0.23773254  0.20271404     0.38800
H303        H  0.37327322  0.43025795  0.21468169     0.41930
H304        H  0.34547516  0.53733246  0.16461267     0.36720
H305        H  0.29523312  0.53122634  0.04362031     0.42830
H306        H  0.28341787  0.43413707  0.95185392     0.39250
H307        H  0.37784130  0.27594915  0.24626043     0.44170
H308        H  0.32793670  0.56611746  0.12442469     0.42890
H309        H  0.25676464  0.40620194  0.93176444     0.43030
H310        H  0.28892672  0.12352700  0.07149349     0.43380
O311        O  0.28836981  0.46771585  0.66798110    -0.75490
O312        O  0.26296180  0.40202025  0.68221961    -0.54400
C313        C  0.27161482  0.44958134  0.68776619     0.78240
O314        O  0.27985101  0.34101102  0.44469364    -0.60090
O315        O  0.32274284  0.32553523  0.45926629    -0.53120
C316        C  0.30107904  0.33346242  0.43211141     0.70260
O317        O  0.22618714  0.36079226  0.53879388    -0.74650
O318        O  0.22860499  0.35147136  0.61396331    -0.55210
C319        C  0.21685153  0.36353512  0.57405035     0.76260
O320        O  0.33798970  0.47528990  0.57515056    -0.59790
O321        O  0.35372080  0.41453257  0.52957295    -0.52910
C322        C  0.35100449  0.46343406  0.54617041     0.72850
Zr323      Zr  0.31220065  0.43048388  0.61347297     2.54710
O324        O  0.28949474  0.50886677  0.58272335    -0.80360
O325        O  0.34504313  0.47967669  0.66979621    -0.93770
Zr326      Zr  0.26562765  0.34387186  0.51572092     2.64680
O327        O  0.24970555  0.42495363  0.47974840    -0.98730
O328        O  0.23394393  0.28873561  0.46219467    -0.80790
O329        O  0.27227621  0.38814445  0.58896396    -0.84150
O330        O  0.30536039  0.38796623  0.53913469    -2.18860
O331        O  0.38571810  0.29160944  0.63793994    -0.67540
O332        O  0.38249341  0.31111426  0.56484530    -0.52100
C333        C  0.39545158  0.29767719  0.60330595     0.71230
O334        O  0.24672482  0.19824254  0.59192236    -0.60440
O335        O  0.25204531  0.24598011  0.65729461    -0.52420
C336        C  0.23745035  0.21947998  0.62467552     0.73040
O337        O  0.30819401  0.18791932  0.50963507    -0.71840
O338        O  0.34714488  0.22449193  0.51922432    -0.50520
C339        C  0.33233455  0.18233257  0.51418180     0.74420
O340        O  0.33258665  0.29692138  0.73456019    -0.67170
O341        O  0.28977256  0.31553698  0.72419943    -0.54370
C342        C  0.31215380  0.30573774  0.74894317     0.72800
Zr343      Zr  0.34474377  0.29892448  0.66316659     2.77540
O344        O  0.36290537  0.21631136  0.69356370    -0.97920
O345        O  0.37641333  0.35175829  0.71877407    -0.78740
Zr346      Zr  0.29043704  0.21224003  0.57391045     2.70070
O347        O  0.31304423  0.14361537  0.62007374    -0.79990
O348        O  0.26666828  0.13340314  0.53610144    -0.99070
Zr349      Zr  0.27279809  0.32431365  0.64330749     2.21500
Zr350      Zr  0.33674022  0.32031891  0.53948200     2.11130
O351        O  0.33278516  0.25399976  0.59225874    -2.47760
O352        O  0.30332691  0.25525385  0.64684465    -0.79780
O353        O  0.34513551  0.36603831  0.61240958    -0.71980
O354        O  0.26137359  0.28292868  0.56883769    -2.32930
O355        O  0.31374328  0.36612860  0.66584896    -2.29140
O356        O  0.29553234  0.27470503  0.51914941    -0.73730
H357        H  0.30586276  0.41348751  0.51697815     0.78260
H358        H  0.24345892  0.27343104  0.55864997     0.79350
H359        H  0.34555335  0.22656947  0.59442475     0.81580
H360        H  0.31666565  0.38393164  0.69554285     0.79180
H361        H  0.23960297  0.25177786  0.46787433     0.42220
H362        H  0.26559356  0.13611595  0.50349035     0.41190
H363        H  0.30108920  0.13344892  0.63861482     0.40870
H364        H  0.36699450  0.19534723  0.66764160     0.38800
H365        H  0.36704159  0.38384607  0.72607570     0.41930
H366        H  0.34176704  0.47102551  0.69920745     0.36720
H367        H  0.27108077  0.50039646  0.57961203     0.42830
H368        H  0.24785791  0.45024949  0.50492305     0.39250
H369        H  0.37985825  0.22692754  0.71304810     0.44170
H370        H  0.34006194  0.51743944  0.66677873     0.42890
H371        H  0.23183548  0.41606195  0.46338317     0.43030
H372        H  0.27815039  0.10306374  0.54494494     0.43380
O373        O  0.08158844  0.01079112  0.17898360    -0.75490
O374        O  0.06318871  0.97688939  0.22792806    -0.54400
C375        C  0.06798042  0.97405606  0.18856202     0.78240
O376        O  0.14371391  0.19444421  0.18688796    -0.60090
O377        O  0.11637001  0.25985892  0.15744481    -0.53120
C378        C  0.13863716  0.23613388  0.16518275     0.70260
O379        O  0.13909156  0.04684780  0.24895078    -0.74650
O380        O  0.11327896  0.01429948  0.29140083    -0.55210
C381        C  0.13262702  0.01188699  0.27323455     0.76260
O382        O  0.06436227  0.13110548  0.07696000    -0.59790
O383        O  0.06886635  0.22108633  0.09078378    -0.52910
C384        C  0.06710565  0.17801808  0.06474490     0.72850
Zr385      Zr  0.06125186  0.08802542  0.14370062     2.54710
O386        O  0.07670921  0.04450099  0.08091592    -0.80360
O387        O  0.01561473  0.07090093  0.10959104    -0.93770
Zr388      Zr  0.12542703  0.13565361  0.22827328     2.64680
O389        O  0.15569126  0.09122774  0.18977392    -0.98730
O390        O  0.16102378  0.16676844  0.28962124    -0.80790
O391        O  0.09330872  0.07031937  0.20839874    -0.84150
O392        O  0.09368454  0.15403620  0.16212533    -2.18860
O393        O  0.02266866  0.22633319  0.17532679    -0.67540
O394        O  0.03324105  0.28656279  0.13916465    -0.52100
C395        C  0.01486511  0.26555583  0.15264268     0.71230
O396        O  0.08088235  0.16925424  0.36570292    -0.60440
O397        O  0.07743527  0.07892753  0.35294800    -0.52420
C398        C  0.07851361  0.12233208  0.37839342     0.73040
O399        O  0.07994020  0.30541271  0.28690161    -0.71840
O400        O  0.07355373  0.32300934  0.21279997    -0.50520
C401        C  0.07461574  0.33680669  0.25452548     0.74420
O402        O  0.00584402  0.09365155  0.27003322    -0.67170
O403        O  0.03760018  0.03478445  0.29516946    -0.54370
C404        C  0.01496956  0.05316559  0.29227142     0.72800
Zr405      Zr  0.02132468  0.15711242  0.22354899     2.77540
O406        O  0.00351077  0.21325076  0.27694699    -0.97920
O407        O  0.47857786  0.13530238  0.17717648    -0.78740
Zr408      Zr  0.08710146  0.21283265  0.30092587     2.70070
O409        O  0.07842478  0.26978155  0.36303066    -0.79990
O410        O  0.13167416  0.23277618  0.33831272    -0.99070
Zr411      Zr  0.07439094  0.06348646  0.27125457     2.21500
Zr412      Zr  0.07321763  0.23632486  0.17313651     2.11130
O413        O  0.05318193  0.22673644  0.23763541    -2.47760
O414        O  0.05497840  0.14492055  0.28653026    -0.79780
O415        O  0.04069874  0.16657056  0.15999773    -0.71980
O416        O  0.10741174  0.13079352  0.29139942    -2.32930
O417        O  0.04097031  0.07720619  0.20525246    -2.29140
O418        O  0.10663395  0.22007337  0.23935958    -0.73730
H419        H  0.10239481  0.15498097  0.13780018     0.78260
H420        H  0.12011310  0.12284471  0.31822337     0.79350
H421        H  0.04423275  0.25813096  0.24520130     0.81580
H422        H  0.02859950  0.04826380  0.19895208     0.79180
H423        H  0.16870741  0.13386026  0.30287216     0.42220
H424        H  0.13287473  0.27213020  0.34009992     0.41190
H425        H  0.05945201  0.26981452  0.35788959     0.40870
H426        H  0.00466069  0.25056525  0.26901709     0.38800
H427        H  0.47992257  0.14080993  0.14594135     0.41930
H428        H  0.01055221  0.03717216  0.12025382     0.36720
H429        H  0.09363987  0.02992294  0.09525387     0.42830
H430        H  0.14941632  0.09778943  0.15741871     0.39250
H431        H  0.48489614  0.20456187  0.27020947     0.44170
H432        H  0.01434806  0.06427878  0.07686363     0.42890
H433        H  0.17201413  0.11167962  0.19973457     0.43030
H434        H  0.13314720  0.22352435  0.36988142     0.43380
O435        O  0.08040168  0.00994068  0.69285702    -0.75490
O436        O  0.06013404  0.98424347  0.74166255    -0.54400
C437        C  0.06691679  0.97485426  0.70429602     0.78240
O438        O  0.14011480  0.18034826  0.67753908    -0.60090
O439        O  0.11113223  0.23736695  0.63792821    -0.53120
C440        C  0.13385500  0.21569129  0.64882336     0.70260
O441        O  0.13907711  0.06726747  0.77688727    -0.74650
O442        O  0.10714925  0.03107077  0.80379525    -0.55210
C443        C  0.13063111  0.03565231  0.80158007     0.76260
O444        O  0.05354189  0.10750814  0.57230104    -0.59790
O445        O  0.06481732  0.19544563  0.57901091    -0.52910
C446        C  0.05921751  0.15051492  0.55605088     0.72850
Zr447      Zr  0.05762805  0.07593978  0.64709542     2.54710
O448        O  0.09057681  0.02920195  0.61518430    -0.80360
O449        O  0.01520135  0.04157279  0.60719103    -0.93770
Zr450      Zr  0.11991280  0.13354289  0.72536747     2.64680
O451        O  0.13236830  0.05608201  0.68371824    -0.98730
O452        O  0.15774136  0.18459081  0.76549223    -0.80790
O453        O  0.07529929  0.12274957  0.71678230    -0.84150
O454        O  0.09017662  0.13918079  0.65490026    -2.18860
O455        O  0.00650874  0.24387341  0.68310802    -0.67540
O456        O  0.02318146  0.24878947  0.62255946    -0.52100
C457        C  0.00384635  0.25220320  0.64177597     0.71230
O458        O  0.07384549  0.19765915  0.85971729    -0.60440
O459        O  0.07042627  0.10708437  0.85720016    -0.52420
C460        C  0.07121997  0.15382438  0.87761109     0.73040
O461        O  0.07993198  0.31337382  0.76077310    -0.71840
O462        O  0.07048685  0.31385926  0.68362086    -0.50520
C463        C  0.07490924  0.33704675  0.72334228     0.74420
O464        O  0.50138771  0.11818405  0.77528346    -0.67170
O465        O  0.03094934  0.05899623  0.80789073    -0.54370
C466        C  0.50902829  0.08151756  0.80286275     0.72800
Zr467      Zr  0.01718995  0.15968189  0.71551480     2.77540
O468        O  0.98109192  0.19738284  0.74333093    -0.97920
O469        O  0.48501829  0.10676798  0.66075617    -0.78740
Zr470      Zr  0.08300410  0.22415109  0.79001820     2.70070
O471        O  0.07579001  0.29747044  0.84135430    -0.79990
O472        O  0.12800973  0.23792729  0.82810016    -0.99070
Zr473      Zr  0.06780391  0.07650777  0.77798062     2.21500
Zr474      Zr  0.06852759  0.22166758  0.65871691     2.11130
O475        O  0.05008144  0.22685075  0.72438543    -2.47760
O476        O  0.04878760  0.16045284  0.78401467    -0.79780
O477        O  0.03527591  0.15559916  0.64976261    -0.71980
O478        O  0.10283943  0.13926414  0.79057154    -2.32930
O479        O  0.03610214  0.07453974  0.70826250    -2.29140
O480        O  0.10222012  0.21931525  0.72710849    -0.73730
H481        H  0.09853252  0.13517717  0.63004821     0.78260
H482        H  0.11535495  0.13568069  0.81862314     0.79350
H483        H  0.04321796  0.26148675  0.72931022     0.81580
H484        H  0.02368098  0.04593504  0.70499875     0.79180
H485        H  0.16429143  0.16576006  0.79334553     0.42220
H486        H  0.13160071  0.27560974  0.82389593     0.41190
H487        H  0.05687010  0.30095093  0.83511642     0.40870
H488        H  0.97830991  0.23418101  0.73372598     0.38800
H489        H  0.48676192  0.11726275  0.63085184     0.41930
H490        H  0.51123283  0.01222304  0.62456188     0.36720
H491        H  0.09001551  0.04391105  0.58563836     0.42830
H492        H  0.12720975  0.02437877  0.69719873     0.39250
H493        H  0.46575658  0.17721047  0.72654418     0.44170
H494        H  0.01677802  0.02528864  0.57763615     0.42890
H495        H  0.15138492  0.05642252  0.69216930     0.43030
H496        H  0.12828874  0.23706979  0.86061520     0.43380
C497        C  0.05235362  0.10307060  0.43274328    -0.26510
C498        C  0.07574408  0.12111037  0.42538817    -0.14590
C499        C  0.09297179  0.15048274  0.46086691     0.36040
C500        C  0.08595023  0.16261124  0.50177038    -0.25960
C501        C  0.06245647  0.14525649  0.50909388    -0.15200
C502        C  0.04532981  0.11517427  0.47388753     0.37130
N503        N  0.02032120  0.09825682  0.47779206    -0.89450
H504        H  0.03866643  0.08234065  0.40529096     0.18240
H505        H  0.09955535  0.18415163  0.52885900     0.18230
N506        N  0.11772134  0.16878233  0.45657457    -0.88480
H507        H  0.00686043  0.11584611  0.45250994     0.35610
H508        H  0.01627183  0.11298817  0.50806881     0.40710
H509        H  0.12176584  0.15422145  0.42622562     0.40330
H510        H  0.13162989  0.15233790  0.48190139     0.35220
C511        C  0.09029033  0.14491507  0.95854433    -0.26510
C512        C  0.06912293  0.15906029  0.92511681    -0.14590
C513        C  0.04804902  0.18480026  0.93809456     0.36040
C514        C  0.04850434  0.19441078  0.98417956    -0.25960
C515        C  0.06955125  0.17948895  0.01758976    -0.15200
C516        C  0.09073620  0.15468384  0.00459401     0.37130
N517        N  0.11283223  0.14010410  0.03827847    -0.89450
H518        H  0.10671261  0.12677880  0.94861312     0.18240
H519        H  0.03184753  0.21165392  0.99392729     0.18230
N520        N  0.02551801  0.19992992  0.90568199    -0.88480
H521        H  0.12723397  0.12493854  0.02314192     0.35610
H522        H  0.10747666  0.10919232  0.05557250     0.40710
H523        H  0.02638671  0.18812218  0.87268483     0.40330
H524        H  0.02466355  0.24148172  0.90776027     0.35220
C525        C  0.43955739  0.31688160  0.58912922    -0.26510
C526        C  0.42314517  0.28514324  0.60744621    -0.14590
C527        C  0.43332733  0.23993447  0.62938913     0.36040
C528        C  0.45899766  0.22728739  0.63275659    -0.25960
C529        C  0.47634304  0.26068152  0.61873306    -0.15200
C530        C  0.46625757  0.30611290  0.59568776     0.37130
N531        N  0.48236306  0.34333898  0.58086594    -0.89450
H532        H  0.43191351  0.35181126  0.57182363     0.18240
H533        H  0.46599839  0.19303616  0.65097380     0.18230
N534        N  0.41786834  0.20719963  0.64982139    -0.88480
H535        H  0.47636382  0.34341296  0.54573967     0.35610
H536        H  0.00145335  0.33107558  0.58791147     0.40710
H537        H  0.42569490  0.20919033  0.68458920     0.40330
H538        H  0.41905762  0.16773394  0.63774075     0.35220
C539        C  0.20125936  0.25728197  0.65609044    -0.26510
C540        C  0.20896320  0.22144915  0.62414220    -0.14590
C541        C  0.18925178  0.19292345  0.59250188     0.36040
C542        C  0.16326596  0.19696116  0.59670868    -0.25960
C543        C  0.15615745  0.23088825  0.63041367    -0.15200
C544        C  0.17556035  0.26215546  0.65929460     0.37130
N545        N  0.16947800  0.29600089  0.69482702    -0.89450
H546        H  0.21539753  0.28151578  0.68010375     0.18240
H547        H  0.14872296  0.17100434  0.57535723     0.18230
N548        N  0.19557901  0.15861053  0.55737718    -0.88480
H549        H  0.17538096  0.33475154  0.69130236     0.35610
H550        H  0.18012927  0.28356454  0.72564136     0.40710
H551        H  0.20210225  0.18282669  0.53558884     0.40330
H552        H  0.17908335  0.13912758  0.53809433     0.35220
C553        C  0.31842027  0.26148471  0.82109654    -0.26510
C554        C  0.31549499  0.30844741  0.79801983    -0.14590
C555        C  0.31833657  0.35824022  0.82256025     0.36040
C556        C  0.32187270  0.36029717  0.86935478    -0.25960
C557        C  0.32384880  0.31348508  0.89243735    -0.15200
C558        C  0.32251543  0.26355712  0.86844168     0.37130
N559        N  0.32486170  0.21548494  0.89212494    -0.89450
H560        H  0.31721633  0.22337419  0.80212798     0.18240
H561        H  0.32288042  0.39870560  0.88788319     0.18230
N562        N  0.31854284  0.40711730  0.80087318    -0.88480
H563        H  0.32370875  0.18217269  0.86949381     0.35610
H564        H  0.30911737  0.21307693  0.90684643     0.40710
H565        H  0.33372379  0.40599863  0.78455995     0.40330
H566        H  0.30148945  0.40966328  0.77634379     0.35220
C567        C  0.27934124  0.35501213  0.35313739    -0.26510
C568        C  0.30071785  0.33420922  0.38307665    -0.14590
C569        C  0.32148816  0.31439177  0.36553103     0.36040
C570        C  0.32065377  0.31734697  0.31963298    -0.25960
C571        C  0.29995629  0.34038392  0.28999186    -0.15200
C572        C  0.27873258  0.35854920  0.30689978     0.37130
N573        N  0.25676905  0.38082552  0.27757744    -0.89450
H574        H  0.26320463  0.36978406  0.36598592     0.18240
H575        H  0.33681837  0.30193008  0.30720534     0.18230
N576        N  0.34348386  0.29095008  0.39397280    -0.88480
H577        H  0.24256830  0.39050361  0.29511631     0.35610
H578        H  0.26261642  0.41664678  0.26728477     0.40710
H579        H  0.35479286  0.32213094  0.41254943     0.40330
H580        H  0.35499528  0.27159192  0.37467423     0.35220
C581        C  0.44823603  0.33307511  0.11374303    -0.26510
C582        C  0.43395340  0.30983944  0.14144691    -0.14590
C583        C  0.44670456  0.27439789  0.17274028     0.36040
C584        C  0.47272702  0.26215609  0.17472507    -0.25960
C585        C  0.48730974  0.28459264  0.14711684    -0.15200
C586        C  0.47443018  0.32119739  0.11586543     0.37130
N587        N  0.48642443  0.34601565  0.08463858    -0.89450
H588        H  0.43865012  0.35994683  0.08892248     0.18240
H589        H  0.48157149  0.23329342  0.19765498     0.18230
N590        N  0.43281647  0.24821458  0.20050982    -0.88480
H591        H  0.47642379  0.33340809  0.05202548     0.35610
H592        H  0.00524703  0.33382862  0.08715386     0.40710
H593        H  0.42847724  0.27700185  0.22372918     0.40330
H594        H  0.44433558  0.22021825  0.21939386     0.35220
C595        C  0.19122233  0.24046175  0.10039422    -0.26510
C596        C  0.21310914  0.24289399  0.13669676    -0.14590
C597        C  0.20913741  0.25224586  0.18086574     0.36040
C598        C  0.18420873  0.25980510  0.18738528    -0.25960
C599        C  0.16212322  0.25488709  0.15167885    -0.15200
C600        C  0.16591774  0.24536038  0.10731948     0.37130
N601        N  0.14466951  0.23997462  0.06869058    -0.89450
H602        H  0.19383289  0.23678296  0.06615704     0.18240
H603        H  0.18189936  0.26514797  0.22178634     0.18230
N604        N  0.23017661  0.25573122  0.22014066    -0.88480
H605        H  0.14634117  0.27043783  0.04769794     0.35610
H606        H  0.12725168  0.24601312  0.07806576     0.40710
H607        H  0.24767916  0.24710547  0.21180946     0.40330
H608        H  0.22734590  0.22601033  0.24105515     0.35220
C609        C  0.03852616  0.84485614  0.63655929    -0.26510
C610        C  0.03338957  0.86232752  0.59201746    -0.14590
C611        C  0.54151176  0.91356364  0.58578684     0.36040
C612        C  0.05142572  0.94736513  0.62365546    -0.25960
C613        C  0.05552286  0.93233697  0.66838519    -0.15200
C614        C  0.04973621  0.87893727  0.67479125     0.37130
N615        N  0.05454039  0.85797096  0.71867200    -0.89450
H616        H  0.03289843  0.80489750  0.64189465     0.18240
H617        H  0.55419866  0.98777866  0.61765146     0.18230
N618        N  0.53810573  0.93270746  0.54128700    -0.88480
H619        H  0.06751095  0.82677047  0.71890452     0.35610
H620        H  0.06360287  0.88616447  0.74370383     0.40710
H621        H  0.54986366  0.91000944  0.52455131     0.40330
H622        H  0.54467397  0.97199832  0.54276090     0.35220
C623        C  0.48406340  0.05540532  0.34288784    -0.26510
C624        C  0.49927098  0.02597305  0.31835386    -0.14590
C625        C  0.00299303  0.97121200  0.32484048     0.36040
C626        C  0.49361445  0.94838897  0.35836222    -0.25960
C627        C  0.47933270  0.97782841  0.38453467    -0.15200
C628        C  0.47370566  0.03157700  0.37566002     0.37130
N629        N  0.45802177  0.06188805  0.40025367    -0.89450
H630        H  0.48122587  0.09745374  0.33794108     0.18240
H631        H  0.49700933  0.90646682  0.36323681     0.18230
N632        N  0.01642224  0.93901886  0.29725048    -0.88480
H633        H  0.45603032  0.10086106  0.38998786     0.35610
H634        H  0.46754750  0.06437378  0.43432860     0.40710
H635        H  0.00552780  0.93839937  0.26401101     0.40330
H636        H  0.01759432  0.89957686  0.30642741     0.35220
C637        C  0.38120334  0.53962355  0.56937299    -0.26510
C638        C  0.36248212  0.51378100  0.53448410    -0.14590
C639        C  0.34742072  0.54679038  0.50253320     0.36040
C640        C  0.35195620  0.60305068  0.50532105    -0.25960
C641        C  0.37035757  0.62876624  0.54099304    -0.15200
C642        C  0.38507542  0.59564954  0.57317890     0.37130
N643        N  0.40483848  0.61931944  0.60919752    -0.89450
H644        H  0.39186020  0.51601666  0.59586489     0.18240
H645        H  0.34151004  0.62676266  0.47874704     0.18230
N646        N  0.32676469  0.52317209  0.46823771    -0.88480
H647        H  0.41432534  0.59026699  0.62978031     0.35610
H648        H  0.39589403  0.64442489  0.62935896     0.40710
H649        H  0.33485260  0.49688652  0.44763012     0.40330
H650        H  0.31721867  0.55218283  0.44767279     0.35220
C651        C  0.37646752  0.06106636  0.54540338    -0.26510
C652        C  0.35939456  0.01673106  0.53367997    -0.14590
C653        C  0.33325675  0.02796901  0.51529222     0.36040
C654        C  0.32532744  0.08146977  0.50865701    -0.25960
C655        C  0.34264095  0.12562264  0.51884758    -0.15200
C656        C  0.36868615  0.11433365  0.53749294     0.37130
N657        N  0.38749140  0.15656028  0.54691388    -0.89450
H658        H  0.39674864  0.05350993  0.55774577     0.18240
H659        H  0.30525808  0.08821841  0.49395478     0.18230
N660        N  0.31429991  0.98621953  0.50171097    -0.88480
H661        H  0.40596482  0.14154750  0.55801338     0.35610
H662        H  0.38372241  0.18089802  0.57352616     0.40710
H663        H  0.32224543  0.94901510  0.50934072     0.40330
H664        H  0.30781011  0.98572696  0.46663609     0.35220
C665        C  0.39712888  0.85029178  0.76087427    -0.26510
C666        C  0.41958874  0.83086302  0.78901516    -0.14590
C667        C  0.43930696  0.81040707  0.76934015     0.36040
C668        C  0.43636823  0.81044373  0.72285682    -0.25960
C669        C  0.41444001  0.83160759  0.69471432    -0.15200
C670        C  0.39446233  0.85144422  0.71387693     0.37130
N671        N  0.37196859  0.87368440  0.68602341    -0.89450
H672        H  0.38184403  0.86575446  0.77576754     0.18240
H673        H  0.45173491  0.79405181  0.70863211     0.18230
N674        N  0.46227177  0.78797256  0.79527341    -0.88480
H675        H  0.35903828  0.88611686  0.70545915     0.35610
H676        H  0.37772782  0.90785694  0.67297672     0.40710
H677        H  0.45720245  0.75799977  0.81396256     0.40330
H678        H  0.47273491  0.81776133  0.81719351     0.35220
C679        C  0.43418071  0.77754876  0.26740617    -0.26510
C680        C  0.43941029  0.82345228  0.29665201    -0.14590
C681        C  0.43751787  0.87386880  0.27841663     0.36040
C682        C  0.43222161  0.87726038  0.23141221    -0.25960
C683        C  0.42677302  0.83146305  0.20229183    -0.15200
C684        C  0.42786571  0.78106768  0.22028828     0.37130
N685        N  0.42261161  0.73380729  0.19068359    -0.89450
H686        H  0.43419687  0.73902625  0.28147288     0.18240
H687        H  0.43162283  0.91587111  0.21731154     0.18230
N688        N  0.43962569  0.92142180  0.30756632    -0.88480
H689        H  0.42386514  0.69998566  0.20930842     0.35610
H690        H  0.43697844  0.73049608  0.17257283     0.40710
H691        H  0.42410303  0.92195488  0.32304595     0.40330
H692        H  0.43800779  0.95526801  0.28890482     0.35220
C693        C  0.04045105  0.85225112  0.11101805    -0.26510
C694        C  0.03107934  0.87727393  0.07000587    -0.14590
C695        C  0.03562717  0.93155447  0.06898268     0.36040
C696        C  0.04646489  0.96057235  0.10898399    -0.25960
C697        C  0.05475646  0.93747802  0.15030497    -0.15200
C698        C  0.05219170  0.88211269  0.15145440     0.37130
N699        N  0.06105209  0.85674345  0.19303866    -0.89450
H700        H  0.03688245  0.81007099  0.11220676     0.18240
H701        H  0.04725878  0.00260844  0.10826699     0.18230
N702        N  0.02714737  0.95843580  0.02823977    -0.88480
H703        H  0.05790622  0.81562902  0.18783610     0.35610
H704        H  0.04981807  0.87048438  0.21515122     0.40710
H705        H  0.01346930  0.98636689  0.03330885     0.40330
H706        H  0.04286658  0.97852229  0.02181212     0.35220
C707        C  0.45449737  0.01865325  0.84471833    -0.26510
C708        C  0.46646150  0.01456599  0.89041679    -0.14590
C709        C  0.99068857  0.03879202  0.90782019     0.36040
C710        C  0.00330695  0.06322596  0.87859859    -0.25960
C711        C  0.49224387  0.06427662  0.83213966    -0.15200
C712        C  0.46705044  0.04289458  0.81515611     0.37130
N713        N  0.45418654  0.04174038  0.76814943    -0.89450
H714        H  0.43601013  0.99934286  0.83111709     0.18240
H715        H  0.02246110  0.07960456  0.89184634     0.18230
N716        N  0.00290564  0.03614392  0.95476757    -0.88480
H717        H  0.45147829  0.00183019  0.75626701     0.35610
H718        H  0.46524323  0.05890774  0.74870473     0.40710
H719        H  0.99156714  0.05730535  0.97336247     0.40330
H720        H  0.02083398  0.05534480  0.96225640     0.35220
C721        C  0.38487909  0.54667463  0.09116612    -0.26510
C722        C  0.37708041  0.50974856  0.05328903    -0.14590
C723        C  0.37063572  0.53214771  0.01028632     0.36040
C724        C  0.37205473  0.58841605  0.00740721    -0.25960
C725        C  0.37899296  0.62488348  0.04571930    -0.15200
C726        C  0.38504496  0.60261703  0.08825534     0.37130
N727        N  0.39241432  0.63534466  0.12952501    -0.89450
H728        H  0.39034895  0.53192843  0.12464489     0.18240
H729        H  0.36859651  0.60391483  0.97417870     0.18230
N730        N  0.36263783  0.50031834  0.96864255    -0.88480
H731        H  0.37916519  0.62813469  0.14892869     0.35610
H732        H  0.39077063  0.67564317  0.12333594     0.40710
H733        H  0.36217299  0.45993402  0.97365381     0.40330
H734        H  0.37638817  0.50538227  0.94977795     0.35220
C735        C  0.33100592  0.08619480  0.02850501    -0.26510
C736        C  0.34943005  0.12546383  0.05000754    -0.14590
C737        C  0.37200432  0.10681110  0.07965264     0.36040
C738        C  0.37595072  0.05123267  0.08361628    -0.25960
C739        C  0.35817569  0.01221926  0.05971588    -0.15200
C740        C  0.33488504  0.03102349  0.03317909     0.37130
N741        N  0.31543299  0.99477810  0.00758879    -0.89450
H742        H  0.31323164  0.09833915  0.00658487     0.18240
H743        H  0.39425971  0.03823328  0.10319559     0.18230
N744        N  0.39139502  0.14197670  0.10681926    -0.88480
H745        H  0.29859102  0.00225194  0.01867467     0.35610
H746        H  0.32021926  0.95540543  0.01456054     0.40710
H747        H  0.38614181  0.18172485  0.10558886     0.40330
H748        H  0.40794612  0.13786688  0.09424433     0.35220
C749        C  0.18534595  0.39040010  0.98159994    -0.26510
C750        C  0.20783399  0.41731627  0.00537845    -0.14590
C751        C  0.21734602  0.45953162  0.98561324     0.36040
C752        C  0.20522235  0.47202404  0.94160145    -0.25960
C753        C  0.18220906  0.44683711  0.91848236    -0.15200
C754        C  0.17210421  0.40541375  0.93889648     0.37130
N755        N  0.14850839  0.37803997  0.91726177    -0.89450
H756        H  0.17872981  0.35585627  0.99543935     0.18240
H757        H  0.21269393  0.50472742  0.92676975     0.18230
N758        N  0.24033222  0.48751251  0.00963464    -0.88480
H759        H  0.15280616  0.33787209  0.91231968     0.35610
H760        H  0.14111384  0.39138026  0.88512244     0.40710
H761        H  0.23643426  0.50689606  0.03858003     0.40330
H762        H  0.24532496  0.51688044  0.99030834     0.35220
C763        C  0.23554695  0.49450759  0.77521896    -0.26510
C764        C  0.23250821  0.54839419  0.76784809    -0.14590
C765        C  0.24467184  0.57193797  0.73717782     0.36040
C766        C  0.25908976  0.53959051  0.71337693    -0.25960
C767        C  0.26076631  0.48460492  0.71883503    -0.15200
C768        C  0.24936385  0.46233781  0.75119094     0.37130
N769        N  0.25110442  0.40670534  0.75921259    -0.89450
H770        H  0.22643233  0.47670222  0.79917446     0.18240
H771        H  0.26767134  0.55697315  0.68861858     0.18230
N772        N  0.24199306  0.62721632  0.72791436    -0.88480
H773        H  0.25916274  0.40284791  0.79350340     0.35610
H774        H  0.23248378  0.39065846  0.75192030     0.40710
H775        H  0.22993689  0.64643838  0.74603152     0.40330
H776        H  0.23294164  0.62911571  0.69379700     0.35220
C777        C  0.26476171  0.75185281  0.92820022    -0.26510
C778        C  0.25014166  0.78217792  0.95360526    -0.14590
C779        C  0.26341813  0.82043848  0.98679738     0.36040
C780        C  0.29035114  0.82677761  0.99268124    -0.25960
C781        C  0.30430518  0.79732284  0.96537945    -0.15200
C782        C  0.29116417  0.75906975  0.93309281     0.37130
N783        N  0.30468693  0.72671403  0.90577632    -0.89450
H784        H  0.25545619  0.72142471  0.90376163     0.18240
H785        H  0.30037195  0.85603177  0.01816760     0.18230
N786        N  0.25062764  0.85416313  0.01425422    -0.88480
H787        H  0.29204887  0.70105316  0.88282464     0.35610
H788        H  0.31729849  0.70259152  0.92720330     0.40710
H789        H  0.23088655  0.84706370  0.00631167     0.40330
H790        H  0.25318845  0.89349488  0.00680612     0.35220
C791        C  0.06789313  0.71551830  0.98958347    -0.26510
C792        C  0.07710618  0.75378584  0.96506946    -0.14590
C793        C  0.06026860  0.79342675  0.94579698     0.36040
C794        C  0.03439706  0.79100623  0.94722187    -0.25960
C795        C  0.02437216  0.74975891  0.96787542    -0.15200
C796        C  0.04187287  0.71345465  0.99164331     0.37130
N797        N  0.03367315  0.67226193  0.01565327    -0.89450
H798        H  0.08048558  0.68396111  0.00365594     0.18240
H799        H  0.02182074  0.82089009  0.93010227     0.18230
N800        N  0.06845506  0.83394497  0.92097579    -0.88480
H801        H  0.01938641  0.64945282  0.99330784     0.35610
H802        H  0.02590812  0.69003073  0.04133065     0.40710
H803        H  0.07483373  0.81590626  0.89380957     0.40330
H804        H  0.08390013  0.85470433  0.94234028     0.35220
C805        C  0.06027537  0.41688059  0.75992694    -0.26510
C806        C  0.07259604  0.39510689  0.72697523    -0.14590
C807        C  0.08261171  0.42955076  0.69995246     0.36040
C808        C  0.08129521  0.48441047  0.70898111    -0.25960
C809        C  0.07441263  0.50456971  0.74841820    -0.15200
C810        C  0.06133595  0.47166293  0.77127854     0.37130
N811        N  0.05226148  0.49301978  0.80946669    -0.89450
H812        H  0.05148596  0.39071552  0.77914941     0.18240
H813        H  0.09097916  0.51051917  0.69102275     0.18230
N814        N  0.09656871  0.41138228  0.66678718    -0.88480
H815        H  0.04385634  0.46299958  0.82367508     0.35610
H816        H  0.03770850  0.51992980  0.79755687     0.40710
H817        H  0.10042039  0.37089130  0.66758683     0.40330
H818        H  0.11474097  0.42959717  0.67567455     0.35220
C819        C  0.17434071  0.92276292  0.83289031    -0.26510
C820        C  0.16321769  0.90507783  0.86689110    -0.14590
C821        C  0.14923348  0.94083146  0.88916262     0.36040
C822        C  0.14263159  0.98959389  0.87117173    -0.25960
C823        C  0.14848491  0.00129266  0.83021232    -0.15200
C824        C  0.16662445  0.97037563  0.81349057     0.37130
N825        N  0.17520519  0.98282359  0.77418879    -0.89450
H826        H  0.18626052  0.89631026  0.81724544     0.18240
H827        H  0.12976521  0.01494536  0.88559386     0.18230
N828        N  0.13896146  0.92672731  0.92635976    -0.88480
H829        H  0.15938347  0.98209739  0.74676853     0.35610
H830        H  0.18334022  0.02105109  0.77961657     0.40710
H831        H  0.15415483  0.91624656  0.95253397     0.40330
H832        H  0.12643735  0.89419407  0.91608913     0.35220
C833        C  0.17070878  0.66642473  0.59980921    -0.26510
C834        C  0.15926372  0.62289434  0.57146788    -0.14590
C835        C  0.14873744  0.58115306  0.59073995     0.36040
C836        C  0.14936441  0.58450561  0.63737624    -0.25960
C837        C  0.16026719  0.62900936  0.66542546    -0.15200
C838        C  0.17154174  0.66984682  0.64613743     0.37130
N839        N  0.18416195  0.71470888  0.67363456    -0.89450
H840        H  0.17908265  0.69857768  0.58572958     0.18240
H841        H  0.14072040  0.55269504  0.65141698     0.18230
N842        N  0.13761184  0.53511927  0.56337550    -0.88480
H843        H  0.20070901  0.70049426  0.69471274     0.35610
H844        H  0.19039602  0.74222036  0.65401920     0.40710
H845        H  0.11852611  0.53161347  0.56585494     0.40330
H846        H  0.14745650  0.50163777  0.57670699     0.35220
C847        C  0.13188808  0.65723877  0.08050724    -0.26510
C848        C  0.15190015  0.68592520  0.06992898    -0.14590
C849        C  0.17058500  0.71154620  0.10500710     0.36040
C850        C  0.16949917  0.70556761  0.15001360    -0.25960
C851        C  0.15038013  0.67385027  0.16089513    -0.15200
C852        C  0.13062040  0.65151421  0.12534858     0.37130
N853        N  0.10945065  0.62260960  0.13449536    -0.89450
H854        H  0.11729272  0.63831369  0.05346042     0.18240
H855        H  0.18445064  0.72398726  0.17669045     0.18230
N856        N  0.19131190  0.74122968  0.09505486    -0.88480
H857        H  0.09735076  0.60688502  0.10457295     0.35610
H858        H  0.09850758  0.65011756  0.14886806     0.40710
H859        H  0.20261067  0.71432974  0.08085879     0.40330
H860        H  0.20321217  0.75813148  0.12470482     0.35220
C861        C  0.19862211  0.44714664  0.57056470    -0.26510
C862        C  0.19285799  0.39265196  0.56718837    -0.14590
C863        C  0.17293621  0.37272530  0.53103292     0.36040
C864        C  0.16446522  0.40365680  0.49377527    -0.25960
C865        C  0.17646432  0.45271873  0.49211465    -0.15200
C866        C  0.19351432  0.47513454  0.53119999     0.37130
N867        N  0.20731677  0.52359685  0.52964804    -0.89450
H868        H  0.21304009  0.46313485  0.59945705     0.18240
H869        H  0.15020283  0.38754409  0.46480647     0.18230
N870        N  0.16363740  0.31900518  0.52904872    -0.88480
H871        H  0.21939815  0.53428481  0.56108413     0.35610
H872        H  0.19400363  0.55379633  0.52268560     0.40710
H873        H  0.17217535  0.30110862  0.55880133     0.40330
H874        H  0.16954368  0.29774518  0.50274542     0.35220
C875        C  0.26500257  0.54638356  0.27784201    -0.26510
C876        C  0.24358463  0.57740469  0.26092040    -0.14590
C877        C  0.23815343  0.58990441  0.21505964     0.36040
C878        C  0.25315019  0.56754877  0.18648593    -0.25960
C879        C  0.27335305  0.53327051  0.20284756    -0.15200
C880        C  0.28021494  0.52493796  0.24962123     0.37130
N881        N  0.30142588  0.49201593  0.26904378    -0.89450
H882        H  0.26951069  0.53730721  0.31307075     0.18240
H883        H  0.24758156  0.57291141  0.15055927     0.18230
N884        N  0.21628955  0.62172421  0.19681762    -0.88480
H885        H  0.31388701  0.51534979  0.29430234     0.35610
H886        H  0.31210162  0.48077522  0.24549494     0.40710
H887        H  0.19979863  0.60018071  0.19796106     0.40330
H888        H  0.21518788  0.62754130  0.16277845     0.35220
C889        C  0.27368069  0.75383062  0.37592815    -0.26510
C890        C  0.25746884  0.77140998  0.40374509    -0.14590
C891        C  0.26684380  0.80610526  0.44185522     0.36040
C892        C  0.29301305  0.81926617  0.45342811    -0.25960
C893        C  0.30977403  0.79756191  0.42789763    -0.15200
C894        C  0.29988780  0.76536954  0.38804936     0.37130
N895        N  0.31654190  0.74134025  0.36172381    -0.89450
H896        H  0.26634733  0.72679843  0.34674532     0.18240
H897        H  0.30047927  0.84503077  0.48335328     0.18230
N898        N  0.24992827  0.82645327  0.46914668    -0.88480
H899        H  0.30593933  0.72029428  0.33282212     0.35610
H900        H  0.32761654  0.71318457  0.38123637     0.40710
H901        H  0.23637650  0.85022832  0.44915588     0.40330
H902        H  0.25999293  0.85122963  0.49618513     0.35220
C903        C  0.01214470  0.65962259  0.40916063    -0.26510
C904        C  0.01184741  0.67126079  0.45449407    -0.14590
C905        C  0.03484531  0.67143344  0.48835934     0.36040
C906        C  0.05799623  0.66488165  0.47542178    -0.25960
C907        C  0.05834606  0.65965940  0.42970321    -0.15200
C908        C  0.03543111  0.65420965  0.39627147     0.37130
N909        N  0.03601184  0.64523527  0.34953005    -0.89450
H910        H  0.99436589  0.66039175  0.38348232     0.18240
H911        H  0.07587479  0.66694181  0.50098715     0.18230
N912        N  0.03554776  0.68243895  0.53546829    -0.88480
H913        H  0.01735529  0.64348921  0.32921874     0.35610
H914        H  0.04391463  0.60769685  0.34571842     0.40710
H915        H  0.01711983  0.68483886  0.54139537     0.40330
H916        H  0.04441558  0.71963331  0.54526572     0.35220
C917        C  0.06184183  0.40034478  0.31013257    -0.26510
C918        C  0.06798855  0.39140622  0.26773007    -0.14590
C919        C  0.06778479  0.43471090  0.24048688     0.36040
C920        C  0.06619501  0.48624940  0.25973234    -0.25960
C921        C  0.06705116  0.49438303  0.30606456    -0.15200
C922        C  0.06120778  0.45158663  0.32948413     0.37130
N923        N  0.05636268  0.45873856  0.37386898    -0.89450
H924        H  0.05901989  0.36742071  0.32979163     0.18240
H925        H  0.06854644  0.51960434  0.24044126     0.18230
N926        N  0.07112550  0.42697913  0.19510616    -0.88480
H927        H  0.07196982  0.44340629  0.39669927     0.35610
H928        H  0.05494453  0.49913897  0.38307278     0.40710
H929        H  0.08990303  0.41395486  0.19699429     0.40330
H930        H  0.06960500  0.46313872  0.17959222     0.35220
C931        C  0.17142019  0.89860334  0.32372445    -0.26510
C932        C  0.15876240  0.85742603  0.29402990    -0.14590
C933        C  0.14175370  0.86833540  0.25326365     0.36040
C934        C  0.13587109  0.92120238  0.24457943    -0.25960
C935        C  0.14632642  0.96219450  0.27656913    -0.15200
C936        C  0.16505583  0.95163021  0.31547541     0.37130
N937        N  0.17640965  0.99430195  0.34723577    -0.89450
H938        H  0.18450582  0.88917156  0.35500561     0.18240
H939        H  0.12133860  0.93016001  0.21485794     0.18230
N940        N  0.12893037  0.82557819  0.22304539    -0.88480
H941        H  0.19006338  0.97948540  0.37385518     0.35610
H942        H  0.16195421  0.01124155  0.36130874     0.40710
H943        H  0.14293107  0.80412387  0.21082564     0.40330
H944        H  0.11644227  0.84058271  0.19503245     0.35220
O945        O  0.64109896  0.79419748  0.33036882    -0.75490
O946        O  0.67609768  0.77254746  0.30216710    -0.54400
C947        C  0.65887674  0.80461160  0.31003814     0.78240
O948        O  0.67677516  0.65154447  0.51219820    -0.60090
O949        O  0.64239781  0.59476706  0.49349456    -0.53120
C950        C  0.65933671  0.62272615  0.52254634     0.70260
O951        O  0.72473974  0.73195625  0.43073284    -0.74650
O952        O  0.72125703  0.73299042  0.35486119    -0.55210
C953        C  0.73243945  0.74532411  0.39600333     0.76260
O954        O  0.58889015  0.69401565  0.39427780    -0.59790
O955        O  0.59657207  0.61729400  0.43134918    -0.52910
C956        C  0.58291236  0.65715576  0.41773150     0.72850
Zr957      Zr  0.62592478  0.72092867  0.36588811     2.54710
O958        O  0.62497727  0.79351761  0.42196131    -0.80360
O959        O  0.58794448  0.75668162  0.31665930    -0.93770
Zr960      Zr  0.69108454  0.67632614  0.44565280     2.64680
O961        O  0.69307411  0.75839938  0.49296603    -0.98730
O962        O  0.72970189  0.64321392  0.49485100    -0.80790
O963        O  0.67140826  0.72457468  0.38293192    -0.84150
O964        O  0.64557926  0.67493890  0.42973603    -2.18860
O965        O  0.58744610  0.57785934  0.30949234    -0.67540
O966        O  0.59791077  0.52940325  0.36998091    -0.52100
C967        C  0.58395431  0.53748670  0.33074681     0.71230
O968        O  0.72027284  0.55649434  0.31514110    -0.60440
O969        O  0.71634034  0.63912015  0.28761185    -0.52420
C970        C  0.72585545  0.59228592  0.29021785     0.73040
O971        O  0.68778960  0.49570775  0.43202679    -0.71840
O972        O  0.64671112  0.49943391  0.44073309    -0.50520
C973        C  0.66977704  0.48288382  0.45145603     0.74420
O974        O  0.63609239  0.63037382  0.21844439    -0.67170
O975        O  0.67091022  0.68513472  0.23880425    -0.54370
C976        C  0.65246650  0.66259039  0.20905118     0.72800
Zr977      Zr  0.62652532  0.59174729  0.28451793     2.77540
O978        O  0.62861080  0.50224351  0.25031266    -0.97920
O979        O  0.59037561  0.59687539  0.21982716    -0.78740
Zr980      Zr  0.69113403  0.54432162  0.36552017     2.70070
O981        O  0.68170866  0.45718395  0.32583845    -0.79990
O982        O  0.73414966  0.51124697  0.39532928    -0.99070
Zr983      Zr  0.68382000  0.68194659  0.31964452     2.21500
Zr984      Zr  0.63380536  0.58373355  0.41142458     2.11130
O985        O  0.64556485  0.54030820  0.34705474    -2.47760
O986        O  0.67182667  0.59151554  0.30118330    -0.79780
O987        O  0.61362796  0.63132955  0.34803670    -0.71980
O988        O  0.70468253  0.63446481  0.38294330    -2.32930
O989        O  0.63825263  0.68250407  0.30120763    -2.29140
O990        O  0.67929398  0.58590978  0.42934183    -0.73730
H991        H  0.63928370  0.68919612  0.45522066     0.78260
H992        H  0.72314994  0.63630828  0.38756361     0.79350
H993        H  0.63954662  0.50381076  0.34268171     0.81580
H994        H  0.63133569  0.70371508  0.27597271     0.79180
H995        H  0.73207016  0.60730300  0.48134910     0.42220
H996        H  0.73762468  0.52036055  0.42822242     0.41190
H997        H  0.68199104  0.46323039  0.29418939     0.40870
H998        H  0.61935259  0.47904708  0.26643613     0.38800
H999        H  0.58205978  0.63102006  0.22546559     0.41930
H1000       H  0.58831291  0.79515199  0.32581662     0.36720
H1001       H  0.64293343  0.80689088  0.43098104     0.42830
H1002       H  0.67601297  0.76087111  0.50034562     0.39250
H1003       H  0.61740335  0.50314516  0.21962837     0.44170
H1004       H  0.59171946  0.75503212  0.28632679     0.42890
H1005       H  0.70504563  0.75062576  0.52175866     0.43030
H1006       H  0.73219553  0.47199978  0.39228736     0.43380
O1007       O  0.59109681  0.69921866  0.91321682    -0.75490
O1008       O  0.61983388  0.76289910  0.95132761    -0.54400
C1009       C  0.59789293  0.73783726  0.94285918     0.78240
O1010       O  0.64892812  0.50528363  0.90279365    -0.60090
O1011       O  0.67035753  0.49226444  0.84929505    -0.53120
C1012       C  0.66509454  0.47934853  0.88632048     0.70260
O1013       O  0.64730030  0.63924858  0.99943941    -0.74650
O1014       O  0.66298942  0.72390114  0.00700280    -0.55210
C1015       C  0.65424839  0.68332845  0.02257366     0.76260
O1016       O  0.58401798  0.58425068  0.79614601    -0.59790
O1017       O  0.61587321  0.53235151  0.77888002    -0.52910
C1018       C  0.59226307  0.54400706  0.77565250     0.72850
Zr1019     Zr  0.60450929  0.65632988  0.85029803     2.54710
O1020       O  0.56460284  0.62171985  0.86343159    -0.80360
O1021       O  0.57703276  0.71689182  0.80184682    -0.93770
Zr1022     Zr  0.66171343  0.59166033  0.93822267     2.64680
O1023       O  0.65140679  0.53352831  0.99287291    -0.98730
O1024       O  0.70229655  0.57432005  0.98998752    -0.80790
O1025       O  0.63344453  0.66334494  0.92316802    -0.84150
O1026       O  0.62988431  0.57986384  0.86738777    -2.18860
O1027       O  0.65719988  0.68207694  0.73074632    -0.67540
O1028       O  0.65766837  0.59221993  0.73519933    -0.52100
C1029       C  0.65838032  0.63448706  0.71364708     0.71230
O1030       O  0.71355332  0.75716660  0.89779844    -0.60440
O1031       O  0.70510530  0.77515457  0.96370561    -0.52420
C1032       C  0.72153502  0.77358533  0.93865016     0.73040
O1033       O  0.72460856  0.61132717  0.82270352    -0.71840
O1034       O  0.69206324  0.55841627  0.78206476    -0.50520
C1035       C  0.71516611  0.57589113  0.79153061     0.74420
O1036       O  0.65806456  0.81979538  0.83198422    -0.67170
O1037       O  0.66137420  0.82972674  0.90810850    -0.54370
C1038       C  0.66105349  0.84781781  0.86966347     0.72800
Zr1039     Zr  0.65280227  0.72849686  0.80081011     2.77540
O1040       O  0.68952934  0.76145612  0.77568814    -0.97920
O1041       O  0.61563034  0.77232555  0.75650303    -0.78740
Zr1042     Zr  0.71018740  0.66281789  0.88159546     2.70070
O1043       O  0.73592389  0.68461063  0.82853796    -0.79990
O1044       O  0.74508238  0.64197685  0.94495327    -0.99070
Zr1045     Zr  0.66052126  0.74017568  0.92879708     2.21500
Zr1046     Zr  0.65540638  0.57527721  0.81260605     2.11130
O1047       O  0.66688495  0.65809655  0.84659124    -2.47760
O1048       O  0.68374159  0.73840420  0.86931659    -0.79780
O1049       O  0.62746311  0.64916536  0.79193618    -0.71980
O1050       O  0.68960513  0.66656414  0.94300499    -2.32930
O1051       O  0.62892844  0.73690966  0.85689251    -2.29140
O1052       O  0.68731512  0.58193788  0.88228776    -0.73730
H1053       H  0.61733982  0.55153226  0.86447465     0.78260
H1054       H  0.70158899  0.67164831  0.97195433     0.79350
H1055       H  0.65792060  0.66095012  0.87011456     0.81580
H1056       H  0.61811450  0.76791804  0.85401410     0.79180
H1057       H  0.70014768  0.58845919  0.01988748     0.42220
H1058       H  0.75953290  0.63189594  0.93099702     0.41190
H1059       H  0.73541117  0.72385367  0.82755214     0.40870
H1060       H  0.69864205  0.72952114  0.76746129     0.38800
H1061       H  0.60715652  0.74448997  0.73359593     0.41930
H1062       H  0.56665421  0.73453538  0.82140961     0.36720
H1063       H  0.56999812  0.59207938  0.88331480     0.42830
H1064       H  0.63415178  0.51849814  0.97868428     0.39250
H1065       H  0.68212100  0.77781687  0.74691789     0.44170
H1066       H  0.56467348  0.69332607  0.78012234     0.42890
H1067       H  0.66319670  0.50304530  0.99373715     0.43030
H1068       H  0.73971064  0.60805009  0.95492518     0.43380
O1069       O  0.49493566  0.82202980  0.05017657    -0.75490
O1070       O  0.50224213  0.86800990  0.99511329    -0.54400
C1071       C  0.50969291  0.85213031  0.03551952     0.78240
O1072       O  0.90934210  0.67358015  0.02245881    -0.60090
O1073       O  0.88032623  0.72519519  0.05010273    -0.53120
C1074       C  0.88969416  0.67884325  0.03928411     0.70260
O1075       O  0.98540003  0.72846889  0.99307161    -0.74650
O1076       O  0.48261578  0.77280508  0.93071242    -0.55210
C1077       C  0.49584800  0.74801418  0.96312007     0.76260
O1078       O  0.94424774  0.85106804  0.14211406    -0.59790
O1079       O  0.90219368  0.82503827  0.12611562    -0.52910
C1080       C  0.92388508  0.83656532  0.15369111     0.72850
Zr1081     Zr  0.95982866  0.86395497  0.07493178     2.54710
O1082       O  0.99226939  0.85480638  0.14450854    -0.80360
O1083       O  0.97620686  0.95402880  0.09752683    -0.93770
Zr1084     Zr  0.93995105  0.72958182  0.00214095     2.64680
O1085       O  0.96333273  0.67539353  0.06141617    -0.98730
O1086       O  0.93694814  0.65554523  0.94586451    -0.80790
O1087       O  0.96566842  0.80444057  0.01563437    -0.84150
O1088       O  0.93235509  0.78823758  0.06329558    -2.18860
O1089       O  0.87686211  0.97165320  0.00757072    -0.67540
O1090       O  0.87267878  0.91714705  0.06279888    -0.52100
C1091       C  0.86948762  0.96257801  0.04303383     0.71230
O1092       O  0.90034084  0.81959496  0.84980440    -0.60440
O1093       O  0.94330706  0.83941133  0.86554433    -0.52420
C1094       C  0.92131781  0.82992674  0.83804628     0.73040
O1095       O  0.84335722  0.79989922  0.93842905    -0.71840
O1096       O  0.84501392  0.81402260  0.01372629    -0.50520
C1097       C  0.83268476  0.80441397  0.97277967     0.74420
O1098       O  0.93777991  0.98666051  0.93485068    -0.67170
O1099       O  0.96794440  0.92971950  0.91802226    -0.54370
C1100       C  0.95668982  0.97482948  0.91634357     0.72800
Zr1101     Zr  0.91324333  0.94260613  0.98252705     2.77540
O1102       O  0.88558731  0.99139313  0.92375998    -0.97920
O1103       O  0.92874342  0.02254376  0.02991607    -0.78740
Zr1104     Zr  0.88618758  0.80636229  0.91847005     2.70070
O1105       O  0.85200352  0.83967593  0.85968324    -0.79990
O1106       O  0.87606676  0.71593654  0.88631098    -0.99070
Zr1107     Zr  0.95854110  0.84769717  0.94734046     2.21500
Zr1108     Zr  0.89008010  0.82482003  0.04401389     2.11130
O1109       O  0.88283534  0.87103999  0.97550980    -2.47760
O1110       O  0.91579679  0.87885628  0.92517274    -0.79780
O1111       O  0.91861304  0.89986300  0.05268474    -0.71980
O1112       O  0.92930026  0.77319385  0.93393905    -2.32930
O1113       O  0.95501652  0.91093568  0.00741074    -2.29140
O1114       O  0.89684647  0.76245490  0.98567315    -0.73730
H1115       H  0.93477588  0.76809015  0.08984842     0.78260
H1116       H  0.93189123  0.74998393  0.90899584     0.79350
H1117       H  0.86572400  0.88537089  0.96829734     0.81580
H1118       H  0.96753501  0.93937267  0.01088328     0.79180
H1119       H  0.91826816  0.64920769  0.93423072     0.42220
H1120       H  0.86954024  0.69798966  0.90950049     0.41190
H1121       H  0.85295024  0.87882372  0.86562318     0.40870
H1122       H  0.86873325  0.97278705  0.91734093     0.38800
H1123       H  0.92918042  0.01273810  0.06100523     0.41930
H1124       H  0.99343540  0.94929056  0.11725049     0.36720
H1125       H  0.49427771  0.81584990  0.14687598     0.42830
H1126       H  0.95362437  0.67807881  0.08542817     0.39250
H1127       H  0.88271393  0.02619149  0.93869026     0.44170
H1128       H  0.96569168  0.96803505  0.11834262     0.42890
H1129       H  0.96044061  0.63827056  0.04847749     0.43030
H1130       H  0.86072526  0.71968240  0.86139898     0.43380
O1131       O  0.49771744  0.80459548  0.56686078    -0.75490
O1132       O  0.51031264  0.84531484  0.51360782    -0.54400
C1133       C  0.51420202  0.83334220  0.55514437     0.78240
O1134       O  0.90307964  0.67121409  0.52138767    -0.60090
O1135       O  0.87382464  0.72914429  0.54108341    -0.53120
C1136       C  0.88247207  0.68084693  0.53410071     0.70260
O1137       O  0.97476440  0.68585451  0.48238852    -0.74650
O1138       O  0.49165421  0.75136103  0.44880252    -0.55210
C1139       C  0.49112246  0.70436339  0.46221501     0.76260
O1140       O  0.93717961  0.84155340  0.63949080    -0.59790
O1141       O  0.89386557  0.83079802  0.61531578    -0.52910
C1142       C  0.91472543  0.83542009  0.64662664     0.72850
Zr1143     Zr  0.96013998  0.84863108  0.58090518     2.54710
O1144       O  0.98594463  0.82940915  0.65488722    -0.80360
O1145       O  0.97919882  0.93452420  0.61129248    -0.93770
Zr1146     Zr  0.93685085  0.71958776  0.50528128     2.64680
O1147       O  0.95987800  0.67883724  0.57323055    -0.98730
O1148       O  0.92766887  0.63520867  0.46099774    -0.80790
O1149       O  0.96840377  0.78520906  0.52557311    -0.83350
O1150       O  0.92794924  0.78124675  0.56222039    -2.18860
O1151       O  0.88525171  0.97121121  0.49512293    -0.67540
O1152       O  0.87009867  0.91957638  0.54252876    -0.52100
C1153       C  0.87169039  0.96466364  0.52352160     0.71230
O1154       O  0.91655038  0.81151535  0.35060975    -0.60440
O1155       O  0.95993748  0.82477002  0.37581108    -0.52420
C1156       C  0.93905124  0.81907944  0.34433468     0.73040
O1157       O  0.85170027  0.80163035  0.41633645    -0.71840
O1158       O  0.84575901  0.81543647  0.48775496    -0.50520
C1159       C  0.83752068  0.80584476  0.44507357     0.74420
O1160       O  0.94874343  0.96265955  0.42935397    -0.67170
O1161       O  0.98315738  0.90874083  0.43373363    -0.54370
C1162       C  0.96996289  0.94899328  0.41874621     0.72800
Zr1163     Zr  0.92451493  0.93558866  0.48427589     2.77540
O1164       O  0.91071656  0.01312852  0.44082638    -0.97920
O1165       O  0.94680255  0.00195221  0.54118937    -0.78740
Zr1166     Zr  0.89642126  0.80452327  0.41240792     2.70070
O1167       O  0.86864041  0.84681384  0.34977137    -0.79990
O1168       O  0.88566381  0.71612412  0.37597214    -0.99070
Zr1169     Zr  0.96860335  0.82957839  0.45919563     2.21500
Zr1170     Zr  0.88842273  0.82571492  0.53326938     2.11130
O1171       O  0.89029917  0.87088258  0.46662139    -2.47760
O1172       O  0.92907290  0.87086763  0.42850864    -0.79780
O1173       O  0.92158143  0.89308017  0.55116249    -0.71980
O1174       O  0.93620445  0.76195469  0.43836846    -2.32930
O1175       O  0.96346596  0.89537966  0.51655634    -2.29140
O1176       O  0.89664024  0.76064315  0.47797669    -0.73730
H1177       H  0.92690142  0.76140321  0.58784105     0.78260
H1178       H  0.93970412  0.73705276  0.41520200     0.79350
H1179       H  0.87414139  0.88760487  0.45439180     0.81580
H1180       H  0.97745863  0.92098181  0.52345164     0.79180
H1181       H  0.92201668  0.64516103  0.42936818     0.42220
H1182       H  0.87730045  0.69776528  0.39668021     0.41190
H1183       H  0.87194055  0.88540885  0.35702336     0.40870
H1184       H  0.89331675  0.00429250  0.42217288     0.38800
H1185       H  0.93727339  0.00221609  0.56541955     0.41930
H1186       H  0.96730399  0.94982405  0.62908665     0.36720
H1187       H  0.48610401  0.79015306  0.65465514     0.42830
H1188       H  0.94687622  0.67345615  0.59098337     0.39250
H1189       H  0.90820928  0.04206341  0.46285516     0.44170
H1190       H  0.99476945  0.92593115  0.63424058     0.42890
H1191       H  0.96374576  0.64245943  0.56257158     0.43030
H1192       H  0.87158054  0.72210984  0.34938775     0.43380
O1193       O  0.79910967  0.50252089  0.15175865    -0.75490
O1194       O  0.76770902  0.44992805  0.16568298    -0.54400
C1195       C  0.78041812  0.49350281  0.17065703     0.78240
O1196       O  0.80057360  0.33047296  0.94690086    -0.60090
O1197       O  0.84303260  0.31132381  0.97078650    -0.53120
C1198       C  0.82262851  0.31813410  0.93991049     0.70260
O1199       O  0.73630604  0.35014004  0.01387542    -0.74650
O1200       O  0.73740599  0.40268771  0.07677050    -0.55210
C1201       C  0.72717616  0.38700956  0.03527356     0.76260
O1202       O  0.86678312  0.44731189  0.10151332    -0.59790
O1203       O  0.86967005  0.40964299  0.03640308    -0.52910
C1204       C  0.87202036  0.45219264  0.06362614     0.72850
Zr1205     Zr  0.82230137  0.45362780  0.09994566     2.54710
O1206       O  0.81043937  0.51197827  0.03783944    -0.80360
O1207       O  0.84163673  0.53932738  0.13137733    -0.93770
Zr1208     Zr  0.77990996  0.34950486  0.00857368     2.64680
O1209       O  0.76744862  0.42292385  0.96005972    -0.98730
O1210       O  0.75356780  0.29167562  0.94890613    -0.80790
O1211       O  0.78148969  0.41498854  0.06992016    -0.84150
O1212       O  0.81974979  0.39356496  0.03402041    -2.18860
O1213       O  0.89298700  0.32118292  0.16414102    -0.67540
O1214       O  0.89410380  0.31623248  0.08965802    -0.52100
C1215       C  0.90519309  0.31653224  0.13163879     0.71230
O1216       O  0.75427731  0.22768263  0.11379196    -0.60440
O1217       O  0.74204635  0.30937201  0.13776867    -0.52420
C1218       C  0.73822373  0.25975855  0.12853257     0.73040
O1219       O  0.81797257  0.19329708  0.03672490    -0.71840
O1220       O  0.85835635  0.22288792  0.04737906    -0.50520
C1221       C  0.84198126  0.18376779  0.04434125     0.74420
O1222       O  0.82472090  0.33829729  0.23535486    -0.67170
O1223       O  0.78192609  0.35514738  0.21161672    -0.54370
C1224       C  0.80206659  0.34524605  0.24247086     0.72800
Zr1225     Zr  0.84781815  0.33375960  0.17546928     2.77540
O1226       O  0.86441596  0.25971177  0.22112099    -0.97920
O1227       O  0.87309622  0.39765826  0.23116677    -0.78740
Zr1228     Zr  0.79806193  0.23502510  0.09315093     2.70070
O1229       O  0.81939951  0.17872814  0.15238061    -0.79990
O1230       O  0.77567766  0.15130985  0.06466145    -0.99070
Zr1231     Zr  0.77501925  0.36650795  0.13065573     2.21500
Zr1232     Zr  0.84980992  0.32216853  0.05224116     2.11130
O1233       O  0.84111163  0.27250245  0.11305018    -2.47760
O1234       O  0.80492097  0.29740665  0.15484585    -0.79780
O1235       O  0.85337122  0.38413126  0.11646986    -0.71980
O1236       O  0.76993586  0.30312974  0.06799369    -2.32930
O1237       O  0.81707987  0.40326845  0.15925069    -2.29140
O1238       O  0.80811214  0.27946664  0.03098493    -0.73730
H1239       H  0.82300525  0.41275831  0.00941192     0.78260
H1240       H  0.75317649  0.28680562  0.05840632     0.79350
H1241       H  0.85342817  0.24476353  0.12169569     0.81580
H1242       H  0.81851918  0.42470126  0.18698100     0.79180
H1243       H  0.75719401  0.25530917  0.95922925     0.42220
H1244       H  0.77159050  0.15238603  0.03137631     0.41190
H1245       H  0.80973187  0.18433134  0.17628421     0.40870
H1246       H  0.87405273  0.23775808  0.20271550     0.38800
H1247       H  0.87326825  0.43027751  0.21466023     0.41930
H1248       H  0.84546901  0.53734551  0.16458455     0.36720
H1249       H  0.79523146  0.53122570  0.04358809     0.42830
H1250       H  0.78340222  0.43414005  0.95184433     0.39250
H1251       H  0.87783425  0.27597755  0.24625941     0.44170
H1252       H  0.82793032  0.56612588  0.12439323     0.42890
H1253       H  0.75675961  0.40617009  0.93173382     0.43030
H1254       H  0.78891663  0.12353784  0.07149236     0.43380
O1255       O  0.78837078  0.46770793  0.66798151    -0.75490
O1256       O  0.76296308  0.40200732  0.68221088    -0.54400
C1257       C  0.77161444  0.44956916  0.68776094     0.78240
O1258       O  0.77985028  0.34102854  0.44468681    -0.60090
O1259       O  0.82274449  0.32557726  0.45925524    -0.53120
C1260       C  0.80107839  0.33349198  0.43210252     0.70260
O1261       O  0.72619178  0.36080877  0.53879660    -0.74650
O1262       O  0.72860956  0.35147349  0.61396386    -0.55210
C1263       C  0.71685661  0.36354697  0.57405354     0.76260
O1264       O  0.83799195  0.47530968  0.57516453    -0.59790
O1265       O  0.85371867  0.41456785  0.52956925    -0.52910
C1266       C  0.85100364  0.46346535  0.54617773     0.72850
Zr1267     Zr  0.81220432  0.43048641  0.61347681     2.54710
O1268       O  0.78950151  0.50887906  0.58274139    -0.80360
O1269       O  0.84504708  0.47966339  0.66981168    -0.93770
Zr1270     Zr  0.76562961  0.34388792  0.51571613     2.64680
O1271       O  0.74970951  0.42497306  0.47974787    -0.98730
O1272       O  0.73394284  0.28876035  0.46218802    -0.80790
O1273       O  0.77228017  0.38814699  0.58896392    -0.84150
O1274       O  0.80536128  0.38798647  0.53913233    -2.18860
O1275       O  0.88572119  0.29160132  0.63792671    -0.67540
O1276       O  0.88249571  0.31112867  0.56483683    -0.52100
C1277       C  0.89545394  0.29767786  0.60329361     0.71230
O1278       O  0.74672567  0.19824599  0.59189585    -0.60440
O1279       O  0.75204649  0.24596999  0.65727488    -0.52420
C1280       C  0.73745115  0.21947639  0.62465185     0.73040
O1281       O  0.80818097  0.18796003  0.50959169    -0.71840
O1282       O  0.84713434  0.22452095  0.51918290    -0.50520
C1283       C  0.83232054  0.18236630  0.51413424     0.74420
O1284       O  0.83259275  0.29690289  0.73454829    -0.67170
O1285       O  0.78977963  0.31552698  0.72418983    -0.54370
C1286       C  0.81216068  0.30572384  0.74893290     0.72800
Zr1287     Zr  0.84474736  0.29891927  0.66315244     2.77540
O1288       O  0.86290877  0.21630080  0.69353835    -0.97920
O1289       O  0.87641687  0.35175270  0.71876052    -0.78740
Zr1290     Zr  0.79043973  0.21224782  0.57388998     2.70070
O1291       O  0.81306270  0.14364388  0.62005896    -0.79990
O1292       O  0.76669948  0.13336585  0.53610988    -0.99070
Zr1293     Zr  0.77280185  0.32430584  0.64329865     2.21500
Zr1294     Zr  0.83674197  0.32034475  0.53946945     2.11130
O1295       O  0.83278708  0.25401223  0.59223635    -2.47760
O1296       O  0.80333073  0.25524787  0.64682862    -0.79780
O1297       O  0.84513944  0.36604488  0.61240456    -0.71980
O1298       O  0.76137477  0.28293356  0.56882429    -2.32930
O1299       O  0.81374688  0.36612086  0.66584381    -2.29140
O1300       O  0.79553513  0.27472545  0.51913747    -0.73730
H1301       H  0.80586253  0.41351330  0.51697963     0.78260
H1302       H  0.74345975  0.27343941  0.55863492     0.79350
H1303       H  0.84555477  0.22658209  0.59439343     0.81580
H1304       H  0.81666949  0.38392003  0.69553917     0.79180
H1305       H  0.73960499  0.25180181  0.46785504     0.42220
H1306       H  0.76559430  0.13610345  0.50349212     0.41190
H1307       H  0.80111085  0.13346762  0.63860269     0.40870
H1308       H  0.86699301  0.19533756  0.66761156     0.38800
H1309       H  0.86704079  0.38382434  0.72608427     0.41930
H1310       H  0.84176640  0.47101313  0.69921989     0.36720
H1311       H  0.77108691  0.50040534  0.57961855     0.42830
H1312       H  0.74787103  0.45027328  0.50492545     0.39250
H1313       H  0.87986388  0.22691260  0.71301688     0.44170
H1314       H  0.84007030  0.51742860  0.66679489     0.42890
H1315       H  0.73183637  0.41608971  0.46339480     0.43030
H1316       H  0.77820706  0.10305466  0.54491604     0.43380
O1317       O  0.58155001  0.01081446  0.17899251    -0.75490
O1318       O  0.56311997  0.97693655  0.22790615    -0.54400
C1319       C  0.56792552  0.97409665  0.18855101     0.78240
O1320       O  0.64370395  0.19446990  0.18694981    -0.60090
O1321       O  0.61636621  0.25986881  0.15745627    -0.53120
C1322       C  0.63863379  0.23614567  0.16522305     0.70260
O1323       O  0.63904067  0.04684185  0.24894241    -0.74650
O1324       O  0.61320780  0.01427234  0.29134746    -0.55210
C1325       C  0.63255483  0.01185093  0.27317784     0.76260
O1326       O  0.56435581  0.13113278  0.07694853    -0.59790
O1327       O  0.56887135  0.22111142  0.09077884    -0.52910
C1328       C  0.56710768  0.17804431  0.06473848     0.72850
Zr1329     Zr  0.56124281  0.08805535  0.14368897     2.54710
O1330       O  0.57678276  0.04459201  0.08096914    -0.80360
O1331       O  0.51562712  0.07080797  0.10950060    -0.93770
Zr1332     Zr  0.62540094  0.13567971  0.22831677     2.64680
O1333       O  0.65569824  0.09127208  0.18988033    -0.98730
O1334       O  0.66097672  0.16676729  0.28971469    -0.80790
O1335       O  0.59327999  0.07035085  0.20841250    -0.84150
O1336       O  0.59367611  0.15406268  0.16214329    -2.18860
O1337       O  0.52269061  0.22632836  0.17523851    -0.67540
O1338       O  0.53324258  0.28661613  0.13912927    -0.52100
C1339       C  0.51487125  0.26557465  0.15259251     0.71230
O1340       O  0.58082443  0.16929022  0.36568556    -0.60440
O1341       O  0.57737942  0.07896290  0.35293065    -0.52420
C1342       C  0.57845696  0.12236778  0.37837539     0.73040
O1343       O  0.57989496  0.30544526  0.28688094    -0.71840
O1344       O  0.57354031  0.32304083  0.21278413    -0.50520
C1345       C  0.57458750  0.33684004  0.25450418     0.74420
O1346       O  0.50578600  0.09370240  0.26995858    -0.67170
O1347       O  0.53753252  0.03481982  0.29511315    -0.54370
C1348       C  0.51490192  0.05320891  0.29219607     0.72800
Zr1349     Zr  0.52127966  0.15715732  0.22348050     2.77540
O1350       O  0.50345543  0.21334023  0.27684103    -0.97920
O1351       O  0.97860346  0.13533223  0.17729507    -0.78740
Zr1352     Zr  0.58704400  0.21286549  0.30091001     2.70070
O1353       O  0.57833005  0.26980962  0.36298663    -0.79990
O1354       O  0.63160925  0.23283021  0.33833284    -0.99070
Zr1355     Zr  0.57433599  0.06352255  0.27123766     2.21500
Zr1356     Zr  0.57320605  0.23635459  0.17312573     2.11130
O1357       O  0.55314154  0.22677591  0.23759380    -2.47760
O1358       O  0.55491722  0.14495754  0.28648850    -0.79780
O1359       O  0.54068258  0.16660308  0.15995906    -0.71980
O1360       O  0.60735892  0.13082304  0.29141326    -2.32930
O1361       O  0.54093474  0.07725392  0.20521224    -2.29140
O1362       O  0.60660342  0.22010196  0.23937566    -0.73730
H1363       H  0.60239239  0.15500283  0.13782555     0.78260
H1364       H  0.62005181  0.12287255  0.31824747     0.79350
H1365       H  0.54419066  0.25817432  0.24514699     0.81580
H1366       H  0.52856122  0.04831643  0.19889794     0.79180
H1367       H  0.66866564  0.13384984  0.30293948     0.42220
H1368       H  0.63280888  0.27218379  0.34009888     0.41190
H1369       H  0.55935588  0.26983738  0.35781445     0.40870
H1370       H  0.50459039  0.25064583  0.26887856     0.38800
H1371       H  0.97992592  0.14091368  0.14606065     0.41930
H1372       H  0.51058327  0.03706631  0.12016733     0.36720
H1373       H  0.59370879  0.03002901  0.09535238     0.42830
H1374       H  0.64943591  0.09781945  0.15751964     0.39250
H1375       H  0.98494816  0.20449809  0.27029434     0.44170
H1376       H  0.51438439  0.06417342  0.07678145     0.42890
H1377       H  0.67201594  0.11173870  0.19985812     0.43030
H1378       H  0.63307091  0.22360437  0.36990501     0.43380
O1379       O  0.58038297  0.00998065  0.69283433    -0.75490
O1380       O  0.56012604  0.98426971  0.74164937    -0.54400
C1381       C  0.56690044  0.97489105  0.70427431     0.78240
O1382       O  0.64011157  0.18032798  0.67749921    -0.60090
O1383       O  0.61113571  0.23738588  0.63792435    -0.53120
C1384       C  0.63385477  0.21568967  0.64879994     0.70260
O1385       O  0.63907488  0.06725072  0.77684435    -0.74650
O1386       O  0.60715111  0.03107269  0.80377507    -0.55210
C1387       C  0.63063132  0.03564372  0.80154600     0.76260
O1388       O  0.55351027  0.10756839  0.57229686    -0.59790
O1389       O  0.56480535  0.19549552  0.57901413    -0.52910
C1390       C  0.55919201  0.15057187  0.55604932     0.72850
Zr1391     Zr  0.55760558  0.07598800  0.64708858     2.54710
O1392       O  0.59052684  0.02920802  0.61513195    -0.80360
O1393       O  0.51516150  0.04167746  0.60721592    -0.93770
Zr1394     Zr  0.61991025  0.13353133  0.72533303     2.64680
O1395       O  0.63233585  0.05605593  0.68366142    -0.98730
O1396       O  0.65775513  0.18454535  0.76543456    -0.80790
O1397       O  0.57529729  0.12277405  0.71677777    -0.84150
O1398       O  0.59016453  0.13920264  0.65488076    -2.18860
O1399       O  0.50652653  0.24394153  0.68314799    -0.67540
O1400       O  0.52318445  0.24883611  0.62258326    -0.52100
C1401       C  0.50385424  0.25225723  0.64181168     0.71230
O1402       O  0.57387359  0.19767098  0.85972568    -0.60440
O1403       O  0.57043757  0.10709848  0.85720172    -0.52420
C1404       C  0.57123997  0.15383798  0.87761606     0.73040
O1405       O  0.57996150  0.31339152  0.76079432    -0.71840
O1406       O  0.57050526  0.31389015  0.68364215    -0.50520
C1407       C  0.57493414  0.33707056  0.72336640     0.74420
O1408       O  0.00138498  0.11816215  0.77527160    -0.67170
O1409       O  0.53095537  0.05902142  0.80789997    -0.54370
C1410       C  0.00902433  0.08149971  0.80285553     0.72800
Zr1411     Zr  0.51719921  0.15974568  0.71555409     2.77540
O1412       O  0.48114011  0.19752344  0.74344316    -0.97920
O1413       O  0.98502855  0.10667930  0.66070013    -0.78740
Zr1414     Zr  0.58303424  0.22416158  0.79002763     2.70070
O1415       O  0.57586446  0.29748421  0.84139816    -0.79990
O1416       O  0.62804798  0.23788805  0.82807797    -0.99070
Zr1417     Zr  0.56780800  0.07652725  0.77797899     2.21500
Zr1418     Zr  0.56853216  0.22170402  0.65872566     2.11130
O1419       O  0.55010122  0.22688908  0.72441219    -2.47760
O1420       O  0.54880895  0.16048678  0.78403725    -0.79780
O1421       O  0.53526993  0.15566189  0.64978446    -0.71980
O1422       O  0.60285315  0.13925950  0.79055581    -2.32930
O1423       O  0.53609558  0.07459097  0.70827582    -2.29140
O1424       O  0.60223487  0.21931803  0.72709980    -0.73730
H1425       H  0.59851474  0.13519753  0.63002159     0.78260
H1426       H  0.61537234  0.13566634  0.81860147     0.79350
H1427       H  0.54324175  0.26152666  0.72934573     0.81580
H1428       H  0.52367098  0.04599356  0.70501608     0.79180
H1429       H  0.66430771  0.16570971  0.79328435     0.42220
H1430       H  0.63164616  0.27556810  0.82387787     0.41190
H1431       H  0.55694641  0.30099352  0.83518335     0.40870
H1432       H  0.47837727  0.23433433  0.73386111     0.38800
H1433       H  0.98677946  0.11717195  0.63079932     0.41930
H1434       H  0.01127552  0.01211564  0.62453688     0.36720
H1435       H  0.59001313  0.04403058  0.58564601     0.42830
H1436       H  0.62719017  0.02435700  0.69716358     0.39250
H1437       H  0.96572549  0.17702306  0.72642324     0.44170
H1438       H  0.51672188  0.02539575  0.57765102     0.42890
H1439       H  0.65135298  0.05639741  0.69207494     0.43030
H1440       H  0.62833516  0.23702528  0.86059575     0.43380
C1441       C  0.55229819  0.10314062  0.43273389    -0.26510
C1442       C  0.57569270  0.12114713  0.42537210    -0.14590
C1443       C  0.59293200  0.15049932  0.46084763     0.36040
C1444       C  0.58591926  0.16263761  0.50175706    -0.25960
C1445       C  0.56242240  0.14531370  0.50908822    -0.15200
C1446       C  0.54528310  0.11525486  0.47388412     0.37130
N1447       N  0.52027112  0.09837175  0.47779817    -0.89450
H1448       H  0.53860217  0.08242944  0.40528304     0.18240
H1449       H  0.59953326  0.18416043  0.52884382     0.18230
N1450       N  0.61768425  0.16877041  0.45654518    -0.88480
H1451       H  0.50681309  0.11598067  0.45252423     0.35610
H1452       H  0.51623099  0.11310688  0.50808125     0.40710
H1453       H  0.62172002  0.15420734  0.42618992     0.40330
H1454       H  0.63159121  0.15230850  0.48186399     0.35220
C1455       C  0.59030898  0.14495519  0.95855317    -0.26510
C1456       C  0.56913959  0.15907674  0.92511925    -0.14590
C1457       C  0.54805945  0.18480179  0.93808730     0.36040
C1458       C  0.54850947  0.19441538  0.98416964    -0.25960
C1459       C  0.56955814  0.17951637  0.01758656    -0.15200
C1460       C  0.59075034  0.15473113  0.00460051     0.37130
N1461       N  0.61284924  0.14018082  0.03829182    -0.89450
H1462       H  0.60673626  0.12683301  0.94862876     0.18240
H1463       H  0.53184789  0.21164488  0.99391033     0.18230
N1464       N  0.52552826  0.19991587  0.90566739    -0.88480
H1465       H  0.62725451  0.12502094  0.02316138     0.35610
H1466       H  0.60750029  0.10927341  0.05559708     0.40710
H1467       H  0.52640267  0.18811144  0.87267237     0.40330
H1468       H  0.52466667  0.24146687  0.90774389     0.35220
C1469       C  0.93956219  0.31688582  0.58913079    -0.26510
C1470       C  0.92314616  0.28513420  0.60742762    -0.14590
C1471       C  0.93332334  0.23990448  0.62934438     0.36040
C1472       C  0.95898859  0.22723172  0.63268039    -0.25960
C1473       C  0.97633891  0.26064146  0.61868611    -0.15200
C1474       C  0.96626094  0.30610637  0.59568373     0.37130
N1475       N  0.98237323  0.34335364  0.58090203    -0.89450
H1476       H  0.93192332  0.35183606  0.57185179     0.18240
H1477       H  0.96598473  0.19295106  0.65086217     0.18230
N1478       N  0.91786730  0.20718363  0.64979408    -0.88480
H1479       H  0.97637586  0.34347607  0.54577823     0.35610
H1480       H  0.50144511  0.33107373  0.58788554     0.40710
H1481       H  0.92569992  0.20918475  0.68455983     0.40330
H1482       H  0.91905273  0.16771272  0.63772443     0.35220
C1483       C  0.70126015  0.25727776  0.65606822    -0.26510
C1484       C  0.70896369  0.22144679  0.62411820    -0.14590
C1485       C  0.68925180  0.19292355  0.59247691     0.36040
C1486       C  0.66326598  0.19696144  0.59668440    -0.25960
C1487       C  0.65615763  0.23088712  0.63039070    -0.15200
C1488       C  0.67556108  0.26215199  0.65927279     0.37130
N1489       N  0.66947928  0.29599579  0.69480663    -0.89450
H1490       H  0.71539865  0.28150975  0.68008251     0.18240
H1491       H  0.64872263  0.17100637  0.57533171     0.18230
N1492       N  0.69557850  0.15861240  0.55735066    -0.88480
H1493       H  0.67538277  0.33474652  0.69128354     0.35610
H1494       H  0.68013046  0.28355735  0.72562026     0.40710
H1495       H  0.70210244  0.18282964  0.53556385     0.40330
H1496       H  0.67908244  0.13913194  0.53806656     0.35220
C1497       C  0.81845880  0.26148234  0.82109816    -0.26510
C1498       C  0.81550196  0.30843798  0.79801040    -0.14590
C1499       C  0.81830928  0.35823600  0.82254092     0.36040
C1500       C  0.82183859  0.36029907  0.86933406    -0.25960
C1501       C  0.82384423  0.31349164  0.89242706    -0.15200
C1502       C  0.82254920  0.26356253  0.86844315     0.37130
N1503       N  0.82492754  0.21549599  0.89213714    -0.89450
H1504       H  0.81728198  0.22337038  0.80213809     0.18240
H1505       H  0.82282030  0.39870865  0.88785390     0.18230
N1506       N  0.81849092  0.40711454  0.80084646    -0.88480
H1507       H  0.82379975  0.18218282  0.86951373     0.35610
H1508       H  0.80918300  0.21303838  0.90685232     0.40710
H1509       H  0.83367630  0.40603515  0.78454395     0.40330
H1510       H  0.80143895  0.40961843  0.77630767     0.35220
C1511       C  0.77934455  0.35507469  0.35313627    -0.26510
C1512       C  0.80071419  0.33423684  0.38306744    -0.14590
C1513       C  0.82147469  0.31438128  0.36551383     0.36040
C1514       C  0.82063950  0.31733746  0.31961557    -0.25960
C1515       C  0.79995029  0.34041014  0.28998294    -0.15200
C1516       C  0.77873490  0.35861110  0.30689835     0.37130
N1517       N  0.75677951  0.38092439  0.27758345    -0.89450
H1518       H  0.76321524  0.36987533  0.36599198     0.18240
H1519       H  0.83679650  0.30189178  0.30718047     0.18230
N1520       N  0.84346002  0.29089660  0.39394751    -0.88480
H1521       H  0.74258454  0.39063119  0.29512808     0.35610
H1522       H  0.76264094  0.41673332  0.26729134     0.40710
H1523       H  0.85478582  0.32205621  0.41252173     0.40330
H1524       H  0.85495931  0.27150846  0.37464202     0.35220
C1525       C  0.94822385  0.33298675  0.11367710    -0.26510
C1526       C  0.93394668  0.30984237  0.14143676    -0.14590
C1527       C  0.94670652  0.27449523  0.17280945     0.36040
C1528       C  0.97272908  0.26224292  0.17480961    -0.25960
C1529       C  0.98730461  0.28458392  0.14714197    -0.15200
C1530       C  0.97441861  0.32110017  0.11581569     0.37130
N1531       N  0.98640723  0.34581230  0.08452892    -0.89450
H1532       H  0.93863354  0.35979084  0.08880146     0.18240
H1533       H  0.98157868  0.23344531  0.19780239     0.18230
N1534       N  0.93282898  0.24841702  0.20065383    -0.88480
H1535       H  0.97640461  0.33311956  0.05193848     0.35610
H1536       H  0.50526393  0.33404246  0.08724375     0.40710
H1537       H  0.92848992  0.27727900  0.22381476     0.40330
H1538       H  0.94435637  0.22048326  0.21960332     0.35220
C1539       C  0.69121413  0.24050136  0.10041299    -0.26510
C1540       C  0.71310535  0.24290552  0.13670737    -0.14590
C1541       C  0.70914120  0.25222156  0.18088417     0.36040
C1542       C  0.68421486  0.25976527  0.18742007    -0.25960
C1543       C  0.66212481  0.25487902  0.15171976    -0.15200
C1544       C  0.66591216  0.24539387  0.10735189     0.37130
N1545       N  0.64466021  0.24004631  0.06872703    -0.89450
H1546       H  0.69381944  0.23685169  0.06617188     0.18240
H1547       H  0.68191124  0.26508192  0.22182592     0.18230
N1548       N  0.73018545  0.25568669  0.22015130    -0.88480
H1549       H  0.64633217  0.27053172  0.04775547     0.35610
H1550       H  0.62724451  0.24607465  0.07811145     0.40710
H1551       H  0.74768610  0.24707836  0.21180669     0.40330
H1552       H  0.72736034  0.22594596  0.24105194     0.35220
C1553       C  0.53852865  0.84489577  0.63651108    -0.26510
C1554       C  0.53337537  0.86239081  0.59197582    -0.14590
C1555       C  0.04155174  0.91347630  0.58581615     0.36040
C1556       C  0.55137886  0.94744463  0.62363393    -0.25960
C1557       C  0.55549881  0.93238726  0.66835751    -0.15200
C1558       C  0.54973591  0.87897014  0.67474952     0.37130
N1559       N  0.55456193  0.85797946  0.71862237    -0.89450
H1560       H  0.53291632  0.80492249  0.64183657     0.18240
H1561       H  0.05426277  0.98768835  0.61765918     0.18230
N1562       N  0.03816512  0.93259212  0.54131003    -0.88480
H1563       H  0.56754610  0.82680786  0.71883413     0.35610
H1564       H  0.56361624  0.88617570  0.74365928     0.40710
H1565       H  0.04991842  0.90985666  0.52459138     0.40330
H1566       H  0.04474990  0.97186964  0.54277418     0.35220
C1567       C  0.98411693  0.05536938  0.34293922    -0.26510
C1568       C  0.99935151  0.02593714  0.31845698    -0.14590
C1569       C  0.50288223  0.97122764  0.32466946     0.36040
C1570       C  0.99372477  0.94840241  0.35854460    -0.25960
C1571       C  0.97940917  0.97784125  0.38465805    -0.15200
C1572       C  0.97375633  0.03156458  0.37571892     0.37130
N1573       N  0.95803891  0.06187295  0.40024823    -0.89450
H1574       H  0.98125561  0.09740167  0.33794066     0.18240
H1575       H  0.99714084  0.90649530  0.36346395     0.18230
N1576       N  0.51628599  0.93904742  0.29702893    -0.88480
H1577       H  0.95602922  0.10082505  0.38993592     0.35610
H1578       H  0.96754797  0.06442397  0.43433164     0.40710
H1579       H  0.50538471  0.93849507  0.26379711     0.40330
H1580       H  0.51743798  0.89958704  0.30615826     0.35220
C1581       C  0.88118615  0.53968188  0.56939721    -0.26510
C1582       C  0.86247726  0.51382168  0.53449709    -0.14590
C1583       C  0.84741912  0.54681759  0.50253108     0.36040
C1584       C  0.85194692  0.60308081  0.50531490    -0.25960
C1585       C  0.87033593  0.62881405  0.54099715    -0.15200
C1586       C  0.88504971  0.59571076  0.57319871     0.37130
N1587       N  0.90480185  0.61939695  0.60922740    -0.89450
H1588       H  0.89183998  0.51608541  0.59589968     0.18240
H1589       H  0.84150514  0.62678184  0.47872887     0.18230
N1590       N  0.82677434  0.52318276  0.46822273    -0.88480
H1591       H  0.91428756  0.59035322  0.62982144     0.35610
H1592       H  0.89584739  0.64450056  0.62937435     0.40710
H1593       H  0.83487332  0.49690023  0.44762912     0.40330
H1594       H  0.81722935  0.55218501  0.44764695     0.35220
C1595       C  0.87643841  0.06112082  0.54547863    -0.26510
C1596       C  0.85937605  0.01677343  0.53368951    -0.14590
C1597       C  0.83324687  0.02799658  0.51520597     0.36040
C1598       C  0.82531660  0.08149662  0.50855663    -0.25960
C1599       C  0.84262452  0.12565706  0.51880728    -0.15200
C1600       C  0.86866113  0.11437903  0.53752606     0.37130
N1601       N  0.88746459  0.15660824  0.54697537    -0.89450
H1602       H  0.89671536  0.05357800  0.55789684     0.18240
H1603       H  0.80525398  0.08824023  0.49379276     0.18230
N1604       N  0.81430221  0.98623557  0.50154250    -0.88480
H1605       H  0.90593660  0.14159825  0.55809633     0.35610
H1606       H  0.88368030  0.18094425  0.57357558     0.40710
H1607       H  0.82224661  0.94903403  0.50918728     0.40330
H1608       H  0.80785478  0.98575678  0.46646075     0.35220
C1609       C  0.89713794  0.85032590  0.76090459    -0.26510
C1610       C  0.91959164  0.83086507  0.78903939    -0.14590
C1611       C  0.93930055  0.81037262  0.76935887     0.36040
C1612       C  0.93635949  0.81040603  0.72287522    -0.25960
C1613       C  0.91443902  0.83160513  0.69473839    -0.15200
C1614       C  0.89446994  0.85147736  0.71390684     0.37130
N1615       N  0.87198421  0.87375261  0.68605915    -0.89450
H1616       H  0.88186002  0.86581510  0.77580327     0.18240
H1617       H  0.95171905  0.79398627  0.70864603     0.18230
N1618       N  0.96225775  0.78790509  0.79528736    -0.88480
H1619       H  0.85905960  0.88620838  0.70549896     0.35610
H1620       H  0.87775577  0.90791460  0.67301443     0.40710
H1621       H  0.95717838  0.75794427  0.81397746     0.40330
H1622       H  0.97273211  0.81768057  0.81720699     0.35220
C1623       C  0.93413117  0.77756794  0.26743326    -0.26510
C1624       C  0.93942627  0.82345842  0.29668367    -0.14590
C1625       C  0.93760425  0.87387268  0.27845316     0.36040
C1626       C  0.93231197  0.87726410  0.23144905    -0.25960
C1627       C  0.92679742  0.83148115  0.20232426    -0.15200
C1628       C  0.92781885  0.78109286  0.22031650     0.37130
N1629       N  0.92249798  0.73384498  0.19070950    -0.89450
H1630       H  0.93409421  0.73905506  0.28149673     0.18240
H1631       H  0.93176553  0.91586898  0.21735197     0.18230
N1632       N  0.93977457  0.92143150  0.30760641    -0.88480
H1633       H  0.92370580  0.70002934  0.20933257     0.35610
H1634       H  0.93685850  0.73043130  0.17259059     0.40710
H1635       H  0.92425329  0.92206600  0.32309171     0.40330
H1636       H  0.93820034  0.95527448  0.28894714     0.35220
C1637       C  0.54037563  0.85227097  0.11105749    -0.26510
C1638       C  0.53106122  0.87725253  0.07000675    -0.14590
C1639       C  0.53566772  0.93150242  0.06893879     0.36040
C1640       C  0.54649863  0.96054726  0.10892962    -0.25960
C1641       C  0.55472085  0.93750218  0.15028999    -0.15200
C1642       C  0.55209525  0.88215891  0.15148978     0.37130
N1643       N  0.56086456  0.85684080  0.19312270    -0.89450
H1644       H  0.53676772  0.81011225  0.11227846     0.18240
H1645       H  0.54732470  0.00257490  0.10817252     0.18230
N1646       N  0.52725266  0.95833884  0.02815675    -0.88480
H1647       H  0.55768237  0.81573439  0.18795428     0.35610
H1648       H  0.54959958  0.87068520  0.21515063     0.40710
H1649       H  0.51358942  0.98633716  0.03315832     0.40330
H1650       H  0.54300322  0.97834504  0.02176239     0.35220
C1651       C  0.95449727  0.01867271  0.84474618    -0.26510
C1652       C  0.96647287  0.01456293  0.89043667    -0.14590
C1653       C  0.49067239  0.03881148  0.90781297     0.36040
C1654       C  0.50329692  0.06324403  0.87859885    -0.25960
C1655       C  0.99224348  0.06427437  0.83214410    -0.15200
C1656       C  0.96704439  0.04291462  0.81517592     0.37130
N1657       N  0.95416802  0.04178292  0.76817627    -0.89450
H1658       H  0.93600507  0.99937835  0.83115559     0.18240
H1659       H  0.52244743  0.07963635  0.89185730     0.18230
N1660       N  0.50287904  0.03618056  0.95476655    -0.88480
H1661       H  0.95144973  0.00187736  0.75628419     0.35610
H1662       H  0.96522018  0.05894909  0.74872354     0.40710
H1663       H  0.49153218  0.05734090  0.97334614     0.40330
H1664       H  0.52080540  0.05539010  0.96226534     0.35220
C1665       C  0.88487642  0.54666990  0.09116018    -0.26510
C1666       C  0.87707943  0.50974676  0.05328059    -0.14590
C1667       C  0.87063784  0.53215057  0.01027962     0.36040
C1668       C  0.87205769  0.58842013  0.00740485    -0.25960
C1669       C  0.87899278  0.62488482  0.04571988    -0.15200
C1670       C  0.88504060  0.60261306  0.08825366     0.37130
N1671       N  0.89240313  0.63533702  0.12952594    -0.89450
H1672       H  0.89034423  0.53192093  0.12463814     0.18240
H1673       H  0.86860263  0.60392207  0.97417783     0.18230
N1674       N  0.86264306  0.50032438  0.96863358    -0.88480
H1675       H  0.87915266  0.62811619  0.14892445     0.35610
H1676       H  0.89075340  0.67563492  0.12333745     0.40710
H1677       H  0.86217934  0.45993929  0.97364290     0.40330
H1678       H  0.87639493  0.50539234  0.94977281     0.35220
C1679       C  0.83100541  0.08618580  0.02851461    -0.26510
C1680       C  0.84942474  0.12546232  0.05002107    -0.14590
C1681       C  0.87199620  0.10681999  0.07967991     0.36040
C1682       C  0.87594476  0.05124428  0.08365529    -0.25960
C1683       C  0.85817683  0.01222197  0.05974786    -0.15200
C1684       C  0.83488841  0.03101580  0.03319544     0.37130
N1685       N  0.81544365  0.99476126  0.00759635    -0.89450
H1686       H  0.81323279  0.09832328  0.00658528     0.18240
H1687       H  0.89425239  0.03825339  0.10324643     0.18230
N1688       N  0.89138240  0.14199377  0.10684864    -0.88480
H1689       H  0.79859717  0.00222753  0.01866966     0.35610
H1690       H  0.82023312  0.95539126  0.01457316     0.40710
H1691       H  0.88612862  0.18174094  0.10560545     0.40330
H1692       H  0.90793733  0.13787988  0.09428535     0.35220
C1693       C  0.68533805  0.39041449  0.98159308    -0.26510
C1694       C  0.70782806  0.41732532  0.00536946    -0.14590
C1695       C  0.71734242  0.45953680  0.98560335     0.36040
C1696       C  0.70521934  0.47202955  0.94159186    -0.25960
C1697       C  0.68220391  0.44684953  0.91847537    -0.15200
C1698       C  0.67209622  0.40543118  0.93889074     0.37130
N1699       N  0.64849768  0.37806572  0.91725851    -0.89450
H1700       H  0.67872000  0.35587357  0.99543362     0.18240
H1701       H  0.71269310  0.50472888  0.92675860     0.18230
N1702       N  0.74033053  0.48751237  0.00962322    -0.88480
H1703       H  0.65279176  0.33789599  0.91231524     0.35610
H1704       H  0.64110313  0.39140793  0.88511986     0.40710
H1705       H  0.73643404  0.50689950  0.03856836     0.40330
H1706       H  0.74532509  0.51687699  0.99029575     0.35220
C1707       C  0.73553199  0.49449779  0.77519139    -0.26510
C1708       C  0.73251334  0.54839282  0.76784307    -0.14590
C1709       C  0.74469152  0.57193634  0.73719287     0.36040
C1710       C  0.75910575  0.53958130  0.71339146    -0.25960
C1711       C  0.76076284  0.48458957  0.71882666    -0.15200
C1712       C  0.74934295  0.46232027  0.75115986     0.37130
N1713       N  0.75105968  0.40667964  0.75915569    -0.89450
H1714       H  0.72640555  0.47669227  0.79913126     0.18240
H1715       H  0.76770030  0.55696577  0.68865019     0.18230
N1716       N  0.74203099  0.62722241  0.72794894    -0.88480
H1717       H  0.75910885  0.40279414  0.79344581     0.35610
H1718       H  0.73243284  0.39066246  0.75184394     0.40710
H1719       H  0.72997263  0.64644974  0.74605868     0.40330
H1720       H  0.73298975  0.62914393  0.69382907     0.35220
C1721       C  0.76477484  0.75186152  0.92822162    -0.26510
C1722       C  0.75015157  0.78218930  0.95361847    -0.14590
C1723       C  0.76342538  0.82045202  0.98681193     0.36040
C1724       C  0.79035918  0.82679049  0.99270486    -0.25960
C1725       C  0.80431642  0.79733354  0.96541018    -0.15200
C1726       C  0.79117802  0.75907765  0.93312299     0.37130
N1727       N  0.80470418  0.72671890  0.90581417    -0.89450
H1728       H  0.75547114  0.72143311  0.90378176     0.18240
H1729       H  0.80037795  0.85604662  0.01819145     0.18230
N1730       N  0.75063140  0.85418028  0.01426056    -0.88480
H1731       H  0.79206804  0.70105581  0.88286128     0.35610
H1732       H  0.81731418  0.70259877  0.92724621     0.40710
H1733       H  0.73089020  0.84708158  0.00631144     0.40330
H1734       H  0.75319377  0.89351086  0.00681107     0.35220
C1735       C  0.56789194  0.71552077  0.98956189    -0.26510
C1736       C  0.57710840  0.75379583  0.96505810    -0.14590
C1737       C  0.56027244  0.79344423  0.94579424     0.36040
C1738       C  0.53440028  0.79102650  0.94721894    -0.25960
C1739       C  0.52437216  0.74977310  0.96786178    -0.15200
C1740       C  0.54187098  0.71345875  0.99162019     0.37130
N1741       N  0.53366851  0.67225790  0.01561875    -0.89450
H1742       H  0.58048241  0.68395728  0.00362749     0.18240
H1743       H  0.52182578  0.82091766  0.93010658     0.18230
N1744       N  0.56846100  0.83396899  0.92098187    -0.88480
H1745       H  0.51938102  0.64945710  0.99326721     0.35610
H1746       H  0.52590340  0.69001921  0.04129892     0.40710
H1747       H  0.57483895  0.81593646  0.89381254     0.40330
H1748       H  0.58390702  0.85472134  0.94235030     0.35220
C1749       C  0.56030061  0.41689802  0.75995954    -0.26510
C1750       C  0.57261959  0.39512916  0.72700412    -0.14590
C1751       C  0.58262324  0.42957503  0.69996790     0.36040
C1752       C  0.58129444  0.48443464  0.70898314    -0.25960
C1753       C  0.57441541  0.50459505  0.74842310    -0.15200
C1754       C  0.56135016  0.47168266  0.77129805     0.37130
N1755       N  0.55227724  0.49303985  0.80948773    -0.89450
H1756       H  0.55151944  0.39072992  0.77919160     0.18240
H1757       H  0.59096953  0.51054733  0.69101382     0.18230
N1758       N  0.59657986  0.41140993  0.66680105    -0.88480
H1759       H  0.54388134  0.46301622  0.82370765     0.35610
H1760       H  0.53771737  0.51993487  0.79757681     0.40710
H1761       H  0.60044561  0.37092523  0.66761959     0.40330
H1762       H  0.61474656  0.42964979  0.67567371     0.35220
C1763       C  0.67435288  0.92277115  0.83286377    -0.26510
C1764       C  0.66323588  0.90509032  0.86687372    -0.14590
C1765       C  0.64925155  0.94084465  0.88914449     0.36040
C1766       C  0.64264146  0.98959812  0.87114308    -0.25960
C1767       C  0.64848750  0.00128697  0.83017589    -0.15200
C1768       C  0.66662786  0.97037354  0.81345325     0.37130
N1769       N  0.67520140  0.98281383  0.77414239    -0.89450
H1770       H  0.68627326  0.89631940  0.81721934     0.18240
H1771       H  0.62977548  0.01494943  0.88556632     0.18230
N1772       N  0.63898720  0.92674857  0.92635235    -0.88480
H1773       H  0.65937671  0.98207924  0.74672682     0.35610
H1774       H  0.68333432  0.02104328  0.77956011     0.40710
H1775       H  0.65418446  0.91627544  0.95252286     0.40330
H1776       H  0.62646330  0.89421312  0.91609328     0.35220
C1777       C  0.67072926  0.66638216  0.59980027    -0.26510
C1778       C  0.65928234  0.62285078  0.57146170    -0.14590
C1779       C  0.64875161  0.58111747  0.59073538     0.36040
C1780       C  0.64937507  0.58448043  0.63737025    -0.25960
C1781       C  0.66027948  0.62898611  0.66541562    -0.15200
C1782       C  0.67155986  0.66981315  0.64612685     0.37130
N1783       N  0.68418367  0.71467335  0.67362177    -0.89450
H1784       H  0.67910660  0.69852964  0.58572000     0.18240
H1785       H  0.64072754  0.55267646  0.65141277     0.18230
N1786       N  0.63762496  0.53508210  0.56337442    -0.88480
H1787       H  0.70072661  0.70045302  0.69470759     0.35610
H1788       H  0.69042451  0.74217521  0.65400618     0.40710
H1789       H  0.61853829  0.53158304  0.56585011     0.40330
H1790       H  0.64746686  0.50160045  0.57671180     0.35220
C1791       C  0.63190604  0.65729568  0.08051825    -0.26510
C1792       C  0.65192279  0.68596172  0.06993553    -0.14590
C1793       C  0.67061572  0.71156430  0.10501154     0.36040
C1794       C  0.66953276  0.70558661  0.15002047    -0.25960
C1795       C  0.65040831  0.67388793  0.16090577    -0.15200
C1796       C  0.63064084  0.65157343  0.12536139     0.37130
N1797       N  0.60946458  0.62269529  0.13451239    -0.89450
H1798       H  0.61730464  0.63838543  0.05347308     0.18240
H1799       H  0.68449052  0.72398952  0.17669562     0.18230
N1800       N  0.69134728  0.74122727  0.09505394    -0.88480
H1801       H  0.59735748  0.60698719  0.10459118     0.35610
H1802       H  0.59853188  0.65021685  0.14889454     0.40710
H1803       H  0.70263730  0.71431649  0.08084852     0.40330
H1804       H  0.70325442  0.75811517  0.12470266     0.35220
C1805       C  0.69863336  0.44716130  0.57055944    -0.26510
C1806       C  0.69286462  0.39266900  0.56719553    -0.14590
C1807       C  0.67294210  0.37274108  0.53104236     0.36040
C1808       C  0.66448018  0.40365811  0.49377255    -0.25960
C1809       C  0.67648783  0.45270765  0.49209978    -0.15200
C1810       C  0.69353624  0.47513076  0.53118428     0.37130
N1811       N  0.70734756  0.52357897  0.52962308    -0.89450
H1812       H  0.71304969  0.46315360  0.59945243     0.18240
H1813       H  0.65021726  0.38754263  0.46480570     0.18230
N1814       N  0.66363452  0.31902967  0.52907328    -0.88480
H1815       H  0.71942437  0.53427658  0.56106130     0.35610
H1816       H  0.69404001  0.55378555  0.52263893     0.40710
H1817       H  0.67216748  0.30114329  0.55883356     0.40330
H1818       H  0.66954009  0.29774983  0.50277868     0.35220
C1819       C  0.76502959  0.54644167  0.27783050    -0.26510
C1820       C  0.74360519  0.57744724  0.26091425    -0.14590
C1821       C  0.73816019  0.58992890  0.21504895     0.36040
C1822       C  0.75314950  0.56756756  0.18646562    -0.25960
C1823       C  0.77335841  0.53330213  0.20282313    -0.15200
C1824       C  0.78023514  0.52499180  0.24959984     0.37130
N1825       N  0.80145418  0.49208686  0.26901691    -0.89450
H1826       H  0.76954758  0.53737931  0.31306265     0.18240
H1827       H  0.74757057  0.57291438  0.15053717     0.18230
N1828       N  0.71628942  0.62173326  0.19681366    -0.88480
H1829       H  0.81391725  0.51543468  0.29426184     0.35610
H1830       H  0.81212417  0.48084509  0.24545948     0.40710
H1831       H  0.69980363  0.60018387  0.19797673     0.40330
H1832       H  0.71517783  0.62753784  0.16276935     0.35220
C1833       C  0.77367978  0.75396821  0.37593048    -0.26510
C1834       C  0.75747343  0.77147947  0.40377893    -0.14590
C1835       C  0.76684988  0.80613881  0.44191284     0.36040
C1836       C  0.79301669  0.81932189  0.45347769    -0.25960
C1837       C  0.80977436  0.79767395  0.42791621    -0.15200
C1838       C  0.79988480  0.76552752  0.38804250     0.37130
N1839       N  0.81653447  0.74155676  0.36168120    -0.89450
H1840       H  0.76634598  0.72696691  0.34672693     0.18240
H1841       H  0.80048449  0.84505395  0.48342252     0.18230
N1842       N  0.74993932  0.82642563  0.46923665    -0.88480
H1843       H  0.80592894  0.72054896  0.33276125     0.35610
H1844       H  0.82761226  0.71337419  0.38115565     0.40710
H1845       H  0.73637833  0.85021064  0.44927647     0.40330
H1846       H  0.76000489  0.85118024  0.49628982     0.35220
C1847       C  0.51217694  0.65960962  0.40921266    -0.26510
C1848       C  0.51188433  0.67129842  0.45454118    -0.14590
C1849       C  0.53488438  0.67149667  0.48840367     0.36040
C1850       C  0.55803319  0.66490994  0.47546357    -0.25960
C1851       C  0.55837809  0.65963129  0.42974466    -0.15200
C1852       C  0.53546084  0.65416137  0.39632053     0.37130
N1853       N  0.53603709  0.64513373  0.34958151    -0.89450
H1854       H  0.49439646  0.66035891  0.38353649     0.18240
H1855       H  0.57591374  0.66698912  0.50102381     0.18230
N1856       N  0.53559125  0.68255575  0.53550836    -0.88480
H1857       H  0.51737949  0.64338206  0.32927446     0.35610
H1858       H  0.54393492  0.60758527  0.34579560     0.40710
H1859       H  0.51716471  0.68498139  0.54143912     0.40330
H1860       H  0.54446389  0.71975055  0.54527684     0.35220
C1861       C  0.56181235  0.40039681  0.31009659    -0.26510
C1862       C  0.56796626  0.39144598  0.26770081    -0.14590
C1863       C  0.56778034  0.43474746  0.24046075     0.36040
C1864       C  0.56620147  0.48628946  0.25970591    -0.25960
C1865       C  0.56705412  0.49442605  0.30603645    -0.15200
C1866       C  0.56119246  0.45164154  0.32945003     0.37130
N1867       N  0.55634451  0.45880627  0.37383209    -0.89450
H1868       H  0.55897686  0.36747867  0.32975172     0.18240
H1869       H  0.56856666  0.51963913  0.24041895     0.18230
N1870       N  0.57112943  0.42700730  0.19508570    -0.88480
H1871       H  0.57194356  0.44344999  0.39666444     0.35610
H1872       H  0.55494167  0.49921039  0.38303866     0.40710
H1873       H  0.58990547  0.41396687  0.19698545     0.40330
H1874       H  0.56962000  0.46316652  0.17957236     0.35220
C1875       C  0.67149067  0.89856803  0.32337966    -0.26510
C1876       C  0.65869488  0.85736176  0.29388516    -0.14590
C1877       C  0.64151966  0.86822386  0.25328236     0.36040
C1878       C  0.63561366  0.92107631  0.24459688    -0.25960
C1879       C  0.64621632  0.96211093  0.27642700    -0.15200
C1880       C  0.66510864  0.95159193  0.31513038     0.37130
N1881       N  0.67661353  0.99430689  0.34670484    -0.89450
H1882       H  0.68470617  0.88917328  0.35453497     0.18240
H1883       H  0.62097135  0.93000150  0.21501643     0.18230
N1884       N  0.62857487  0.82543680  0.22324709    -0.88480
H1885       H  0.69037047  0.97951809  0.37319011     0.35610
H1886       H  0.66226516  0.01133508  0.36100721     0.40710
H1887       H  0.64249017  0.80391569  0.21084046     0.40330
H1888       H  0.61598995  0.84041029  0.19533085     0.35220
loop_ 
_geom_bond_atom_site_label_1 
_geom_bond_atom_site_label_2 
_geom_bond_distance 
_geom_bond_site_symmetry_2 
_ccdc_geom_bond_type 
O1          Zr13   2.428       .  S
O1            C3   1.285       .  A
O2          Zr39   2.387       .  S
O2            C3   1.277       .  A
C3          C932   1.443       .  S
O4          Zr16   2.444       .  S
O4            C6   1.290       .  A
O5          Zr40   2.438       .  S
O5            C6   1.288       .  A
C6          C834   1.493       .  S
O7          Zr16   2.425       .  S
O7            C9   1.285       .  A
O8          Zr39   2.381       .  S
O8            C9   1.279       .  A
C9          C890   1.457       .  S
O10         Zr13   2.451       .  S
O10          C12   1.290       .  A
O11         Zr40   2.353       .  S
O11          C12   1.272       .  A
C12         C907   1.442       .  S
Zr13         O14   2.434       .  S
Zr13         O15   2.437       .  S
Zr13         O19   2.369       .  S
Zr13         O20   2.358       .  S
Zr13         O43   2.347       .  S
Zr13         O45   2.372       .  S
O14          H57   0.990       .  S
O15          H56   0.990       .  S
O15          H60   0.990       .  S
Zr16         O17   2.435       .  S
Zr16         O18   2.434       .  S
Zr16         O20   2.370       .  S
Zr16         O19   2.364       .  S
Zr16         O44   2.385       .  S
Zr16         O46   2.356       .  S
O17          H58   0.990       .  S
O17          H61   0.990       .  S
O18          H51   0.990       .  S
O19         Zr39   2.378       .  S
O20         Zr40   2.381       .  S
O20          H47   0.966       .  S
O21         Zr33   2.418       .  S
O21          C23   1.275       .  A
O22         Zr40   2.417       .  S
O22          C23   1.284       .  A
C23         C921   1.467       .  S
O24         Zr36   2.460       .  S
O24          C26   1.292       .  A
O25         Zr39   2.406       .  S
O25          C26   1.282       .  A
C26         C876   1.480       .  S
O27         Zr36   2.474       .  S
O27          C29   1.294       .  A
O28         Zr40   2.391       .  S
O28          C29   1.277       .  A
C29         C865   1.467       .  S
O30         Zr33   2.448       .  S
O30          C32   1.287       .  A
O31         Zr39   2.409       .  S
O31          C32   1.283       .  A
C32         C851   1.492       .  S
Zr33         O34   2.437       .  S
Zr33         O35   2.433       .  S
Zr33         O41   2.398       .  S
Zr33         O42   2.359       .  S
Zr33         O45   2.364       .  S
Zr33         O43   2.367       .  S
O34          H54   0.989       .  S
O34          H59   0.990       .  S
O35          H55   0.990       .  S
Zr36         O37   2.435       .  S
Zr36         O38   2.435       .  S
Zr36         O42   2.382       .  S
Zr36         O41   2.373       .  S
Zr36         O46   2.367       .  S
Zr36         O44   2.375       .  S
O37          H53   0.990       .  S
O38          H52   0.990       .  S
O38          H62   0.990       .  S
Zr39         O42   2.365       .  S
Zr39         O44   2.384       .  S
Zr39         O45   2.372       .  S
Zr40         O41   2.398       .  S
Zr40         O43   2.377       .  S
Zr40         O46   2.368       .  S
O41          H49   0.966       .  S
O44          H48   0.966       .  S
O45          H50   0.965       .  S
O63         Zr75   2.396       .  S
O63          C65   1.280       .  A
O64        Zr101   2.484       .  S
O64          C65   1.299       .  A
C65         C792   1.472       .  S
O66         Zr78   2.396       .  S
O66          C68   1.258       .  A
O67        Zr102   2.474       .  S
O67          C68   1.286       .  A
C68         C753   1.466       .  S
O69         Zr78   2.429       .  S
O69          C71   1.286   1_556  A
O70        Zr101   2.419   1_554  S
O70          C71   1.285       .  A
C71         C848   1.476       .  S
O72         Zr75   2.456       .  S
O72          C74   1.288       .  A
O73        Zr102   2.361       .  S
O73          C74   1.279       .  A
C74         C809   1.458       .  S
Zr75         O76   2.434       .  S
Zr75         O77   2.435       .  S
Zr75         O81   2.395       .  S
Zr75         O82   2.366       .  S
Zr75        O105   2.383       .  S
Zr75        O107   2.389       .  S
O76         H119   0.990       .  S
O77         H118   0.990       .  S
O77         H122   0.990       .  S
Zr78         O79   2.440       .  S
Zr78         O80   2.428       .  S
Zr78         O82   2.426       .  S
Zr78         O81   2.348       .  S
Zr78        O106   2.385       .  S
Zr78        O108   2.424       .  S
O79         H120   0.990       .  S
O79         H123   0.989       .  S
O80         H113   0.990   1_556  S
O81        Zr101   2.394       .  S
O82        Zr102   2.387       .  S
O82         H109   0.967       .  S
O83         Zr95   2.432       .  S
O83          C85   1.284       .  A
O84        Zr102   2.456       .  S
O84          C85   1.290       .  A
C85         C837   1.496       .  S
O86         Zr98   2.395       .  S
O86          C88   1.264       .  A
O87        Zr101   2.515       .  S
O87          C88   1.290       .  A
C88         C778   1.505       .  S
O89         Zr98   2.419       .  S
O89          C91   1.278       .  A
O90        Zr102   2.384       .  S
O90          C91   1.276       .  A
C91         C764   1.451       .  S
O92         Zr95   2.424       .  S
O92          C94   1.289       .  A
O93        Zr101   2.381       .  S
O93          C94   1.280       .  A
C94         C820   1.456       .  S
Zr95         O96   2.433       .  S
Zr95         O97   2.434       .  S
Zr95        O103   2.338       .  S
Zr95        O104   2.347       .  S
Zr95        O107   2.359       .  S
Zr95        O105   2.383       .  S
O96         H116   0.988       .  S
O96         H121   0.990       .  S
O97         H117   0.990       .  S
Zr98         O99   2.441       .  S
Zr98        O100   2.439       .  S
Zr98        O104   2.363       .  S
Zr98        O103   2.316       .  S
Zr98        O108   2.382       .  S
Zr98        O106   2.379       .  S
O99         H115   0.990       .  S
O100        H114   0.990       .  S
O100        H124   0.989       .  S
Zr101       O104   2.422       .  S
Zr101       O106   2.410       .  S
Zr101       O107   2.438       .  S
Zr102       O103   2.291       .  S
Zr102       O105   2.404       .  S
Zr102       O108   2.396       .  S
O103        H111   0.955       .  S
O106        H110   0.966       .  S
O107        H112   0.966       .  S
O125      Zr1081   2.400       .  S
O125        C127   1.267   1_655  A
O126      Zr1107   2.489   1_455  S
O126        C127   1.293   1_556  A
C127        C694   1.477       .  S
O128       Zr140   2.376       .  S
O128        C130   1.275       .  A
O129       Zr164   2.589       .  S
O129        C130   1.322       .  A
C130        C725   1.517       .  S
O131       Zr140   2.510   1_556  S
O131       C1077   1.296       .  A
O132      Zr1107   2.375       .  S
O132        C133   1.272       .  A
C133       O1075   1.296       .  A
C133        C795   1.500   1_655  S
O134       Zr137   2.423       .  S
O134        C136   1.281       .  A
O135       Zr164   2.438       .  S
O135        C136   1.288       .  A
C136        C683   1.469       .  S
Zr137      O1069   2.400       .  S
Zr137       O138   2.434       .  S
Zr137       O139   2.434       .  S
Zr137       O143   2.354       .  S
Zr137       O144   2.369       .  S
Zr137       O167   2.347       .  S
Zr137       O169   2.400       .  S
O138       H1125   0.990       .  S
O139        H180   0.989       .  S
O139        H184   0.990       .  S
Zr140       O141   2.438       .  S
Zr140       O142   2.435   1_554  S
Zr140       O144   2.415       .  S
Zr140       O143   2.296       .  S
Zr140       O168   2.364   1_554  S
Zr140       O170   2.399   1_554  S
O141        H182   0.990       .  S
O141        H185   0.990       .  S
O142        H175   0.990       .  S
O143       Zr163   2.362   1_554  S
O144       Zr164   2.397       .  S
O144        H171   0.965       .  S
O145       Zr157   2.349   1_554  S
O145        C147   1.267       .  A
O146       Zr164   2.581       .  S
O146        C147   1.318       .  A
C147        C739   1.499   1_565  S
O148       Zr160   2.427       .  S
O148        C150   1.286       .  A
O149       Zr163   2.436       .  S
O149        C150   1.291       .  A
C150        C666   1.478       .  S
O151       Zr160   2.511       .  S
O151        C153   1.303       .  A
O152       Zr164   2.384       .  S
O152        C153   1.280   1_554  A
C153        C781   1.492       .  S
O154       Zr157   2.481       .  S
O154        C156   1.293       .  A
O155       Zr163   2.399       .  S
O155        C156   1.282       .  A
C156        C708   1.480   1_565  S
Zr157       O158   2.438       .  S
Zr157       O159   2.435   1_566  S
Zr157       O165   2.397       .  S
Zr157       O166   2.328       .  S
Zr157       O169   2.342   1_556  S
Zr157       O167   2.412   1_556  S
O158        H178   0.990       .  S
O158        H183   0.990   1_565  S
O159        H179   0.990       .  S
Zr160       O161   2.434       .  S
Zr160       O162   2.434       .  S
Zr160       O166   2.388       .  S
Zr160       O165   2.346       .  S
Zr160       O170   2.342       .  S
Zr160       O168   2.402       .  S
O161        H177   0.990       .  S
O162        H176   0.990       .  S
O162        H186   0.990       .  S
Zr163      O1070   2.489       .  S
Zr163      O1076   2.375       .  S
Zr163       O166   2.375       .  S
Zr163       O168   2.400       .  S
Zr163       O169   2.393   1_556  S
Zr164       O165   2.407   1_554  S
Zr164       O167   2.396       .  S
Zr164       O170   2.391   1_554  S
O165        H173   0.965       .  S
O168        H172   0.966       .  S
O169        H174   0.966       .  S
H181       O1082   0.990       .  S
O187      Zr1143   2.404       .  S
O187        C189   1.269   1_655  A
O188      Zr1169   2.472   1_455  S
O188        C189   1.290       .  A
C189        C610   1.490       .  S
O190       Zr202   2.342       .  S
O190        C192   1.268       .  A
O191       Zr226   2.597       .  S
O191        C192   1.322       .  A
C192        C641   1.511       .  S
O193       Zr202   2.427       .  S
O193       C1139   1.283       .  A
O194      Zr1169   2.363       .  S
O194        C195   1.278       .  A
C195       O1137   1.283       .  A
C195        C904   1.439   1_655  S
O196       Zr199   2.406       .  S
O196        C198   1.281       .  A
O197       Zr226   2.448       .  S
O197        C198   1.291       .  A
C198        C669   1.480       .  S
Zr199      O1131   2.404       .  S
Zr199       O200   2.434       .  S
Zr199       O201   2.430       .  S
Zr199       O205   2.367       .  S
Zr199       O206   2.369       .  S
Zr199       O229   2.361       .  S
Zr199       O231   2.391       .  S
O200       H1187   0.990       .  S
O201        H242   0.990       .  S
O201        H246   0.989       .  S
Zr202       O203   2.437       .  S
Zr202       O204   2.434       .  S
Zr202       O206   2.387       .  S
Zr202       O205   2.317       .  S
Zr202       O230   2.354       .  S
Zr202       O232   2.377       .  S
O203        H244   0.989       .  S
O203        H247   0.990       .  S
O204        H237   0.990       .  S
O205       Zr225   2.374       .  S
O206       Zr226   2.397       .  S
O206        H233   0.965       .  S
O207       Zr219   2.366       .  S
O207        C209   1.270       .  A
O208       Zr226   2.579       .  S
O208        C209   1.317       .  A
C209        C652   1.513   1_565  S
O210       Zr222   2.393       .  S
O210        C212   1.278       .  A
O211       Zr225   2.474       .  S
O211        C212   1.296       .  A
C212        C680   1.469       .  S
O213       Zr222   2.424       .  S
O213        C215   1.285       .  A
O214       Zr226   2.388       .  S
O214        C215   1.283       .  A
C215        C893   1.466       .  S
O216       Zr219   2.470       .  S
O216        C218   1.290       .  A
O217       Zr225   2.379       .  S
O217        C218   1.279       .  A
C218        C627   1.484       .  S
Zr219       O220   2.443   1_565  S
Zr219       O221   2.435   1_565  S
Zr219       O227   2.398       .  S
Zr219       O228   2.336       .  S
Zr219       O231   2.345       .  S
Zr219       O229   2.398       .  S
O220        H240   0.990       .  S
O220        H245   0.990       .  S
O221        H241   0.990       .  S
Zr222       O223   2.433       .  S
Zr222       O224   2.435       .  S
Zr222       O228   2.367       .  S
Zr222       O227   2.354       .  S
Zr222       O232   2.341       .  S
Zr222       O230   2.370       .  S
O223        H239   0.990       .  S
O224        H238   0.990       .  S
O224        H248   0.990       .  S
Zr225      O1132   2.472       .  S
Zr225      O1138   2.363       .  S
Zr225       O228   2.370       .  S
Zr225       O230   2.384       .  S
Zr225       O231   2.397       .  S
Zr226       O227   2.411       .  S
Zr226       O229   2.404       .  S
Zr226       O232   2.392       .  S
O227        H235   0.965       .  S
O230        H234   0.966       .  S
O231        H236   0.966       .  S
H243       O1144   0.990       .  S
O249       Zr261   2.492       .  S
O249        C251   1.291       .  A
O250       Zr287   2.370       .  S
O250        C251   1.275       .  A
C251        C879   1.469       .  S
O252       Zr264   2.416   1_556  S
O252        C254   1.280       .  A
O253       Zr288   2.426   1_556  S
O253        C254   1.285       .  A
C254        C557   1.463       .  S
O255       Zr264   2.375       .  S
O255        C257   1.263       .  A
O256       Zr287   2.495       .  S
O256        C257   1.296       .  A
C257        C750   1.459       .  S
O258       Zr261   2.374       .  S
O258        C260   1.264       .  A
O259       Zr288   2.568       .  S
O259        C260   1.302       .  A
C260        C722   1.539       .  S
Zr261       O262   2.435       .  S
Zr261       O263   2.438       .  S
Zr261       O267   2.352       .  S
Zr261       O268   2.419       .  S
Zr261       O291   2.404       .  S
Zr261       O293   2.340       .  S
O262        H305   0.990       .  S
O263        H304   0.991       .  S
O263        H308   0.990       .  S
Zr264       O265   2.433   1_554  S
Zr264       O266   2.434   1_554  S
Zr264       O268   2.350       .  S
Zr264       O267   2.403       .  S
Zr264       O292   2.376       .  S
Zr264       O294   2.346       .  S
O265        H306   0.990       .  S
O265        H309   0.990       .  S
O266        H299   0.990       .  S
O267       Zr287   2.370       .  S
O268       Zr288   2.411       .  S
O268        H295   0.966       .  S
O269       Zr281   2.535       .  S
O269        C271   1.307       .  A
O270       Zr288   2.389       .  S
O270        C271   1.281       .  A
C271        C582   1.509       .  S
O272       Zr284   2.572       .  S
O272        C274   1.312       .  A
O273       Zr287   2.336       .  S
O273        C274   1.270       .  A
C274        C596   1.490       .  S
O275       Zr284   2.412       .  S
O275        C277   1.276       .  A
O276       Zr288   2.540       .  S
O276        C277   1.305       .  A
C277        C736   1.529       .  S
O278       Zr281   2.428       .  S
O278        C280   1.289       .  A
O279       Zr287   2.446       .  S
O279        C280   1.291       .  A
C280        C571   1.492       .  S
Zr281       O282   2.437       .  S
Zr281       O283   2.433       .  S
Zr281       O289   2.337       .  S
Zr281       O290   2.403       .  S
Zr281       O293   2.392       .  S
Zr281       O291   2.338       .  S
O282        H302   0.990       .  S
O282        H307   0.990       .  S
O283        H303   0.990       .  S
Zr284       O285   2.434       .  S
Zr284       O286   2.437       .  S
Zr284       O290   2.338       .  S
Zr284       O289   2.421       .  S
Zr284       O294   2.423       .  S
Zr284       O292   2.324       .  S
O285        H301   0.990       .  S
O286        H300   0.990       .  S
O286        H310   0.990       .  S
Zr287       O290   2.392       .  S
Zr287       O292   2.380       .  S
Zr287       O293   2.385       .  S
Zr288       O289   2.431       .  S
Zr288       O291   2.401       .  S
Zr288       O294   2.411       .  S
O289        H297   0.965       .  S
O292        H296   0.962       .  S
O293        H298   0.963       .  S
O311       Zr323   2.460       .  S
O311        C313   1.289       .  A
O312       Zr349   2.347       .  S
O312        C313   1.272       .  A
C313        C767   1.470       .  S
O314       Zr326   2.454       .  S
O314        C316   1.290       .  A
O315       Zr350   2.400       .  S
O315        C316   1.282       .  A
C316        C568   1.493       .  S
O317       Zr326   2.402       .  S
O317        C319   1.284       .  A
O318       Zr349   2.438       .  S
O318        C319   1.289       .  A
C319        C862   1.455       .  S
O320       Zr323   2.336       .  S
O320        C322   1.267       .  A
O321       Zr350   2.602       .  S
O321        C322   1.322       .  A
C322        C638   1.507       .  S
Zr323       O324   2.436       .  S
Zr323       O325   2.436       .  S
Zr323       O329   2.332       .  S
Zr323       O330   2.397       .  S
Zr323       O353   2.395       .  S
Zr323       O355   2.332       .  S
O324        H367   0.990       .  S
O325        H366   0.990       .  S
O325        H370   0.990       .  S
Zr326       O327   2.434       .  S
Zr326       O328   2.434       .  S
Zr326       O330   2.340       .  S
Zr326       O329   2.386       .  S
Zr326       O354   2.347       .  S
Zr326       O356   2.351       .  S
O327        H368   0.990       .  S
O327        H371   0.990       .  S
O328        H361   0.990       .  S
O329       Zr349   2.374       .  S
O330       Zr350   2.386       .  S
O330        H357   0.965       .  S
O331       Zr343   2.488       .  S
O331        C333   1.298       .  A
O332       Zr350   2.406       .  S
O332        C333   1.282       .  A
C333        C526   1.492       .  S
O334       Zr346   2.553       .  S
O334        C336   1.301       .  A
O335       Zr349   2.374       .  S
O335        C336   1.268       .  A
C336        C540   1.521       .  S
O337       Zr346   2.415       .  S
O337        C339   1.275       .  A
O338       Zr350   2.545       .  S
O338        C339   1.306       .  A
C339        C655   1.531       .  S
O340       Zr343   2.416       .  S
O340        C342   1.282       .  A
O341       Zr349   2.448       .  S
O341        C342   1.291       .  A
C342        C554   1.464       .  S
Zr343       O344   2.436       .  S
Zr343       O345   2.435       .  S
Zr343       O351   2.331       .  S
Zr343       O352   2.409       .  S
Zr343       O355   2.376       .  S
Zr343       O353   2.364       .  S
O344        H364   0.990       .  S
O344        H369   0.990       .  S
O345        H365   0.990       .  S
Zr346       O347   2.435       .  S
Zr346       O348   2.438       .  S
Zr346       O352   2.366       .  S
Zr346       O351   2.431       .  S
Zr346       O356   2.423       .  S
Zr346       O354   2.348       .  S
O347        H363   0.990       .  S
O348        H362   0.990       .  S
O348        H372   0.989       .  S
Zr349       O352   2.371       .  S
Zr349       O354   2.386       .  S
Zr349       O355   2.368       .  S
Zr350       O351   2.432       .  S
Zr350       O353   2.388       .  S
Zr350       O356   2.421       .  S
O351        H359   0.964       .  S
O354        H358   0.963       .  S
O355        H360   0.965       .  S
O373       Zr385   2.413       .  S
O373        C375   1.267   1_545  A
O374       Zr411   2.479   1_565  S
O374        C375   1.282       .  A
C375        C697   1.484       .  S
O376       Zr388   2.356       .  S
O376        C378   1.270       .  A
O377       Zr412   2.542       .  S
O377        C378   1.309       .  A
C378        C599   1.496       .  S
O379       Zr388   2.424       .  S
O379        C381   1.282       .  A
O380       Zr411   2.392       .  S
O380        C381   1.282       .  A
C381        C935   1.445   1_545  S
O382       Zr385   2.404       .  S
O382        C384   1.279       .  A
O383       Zr412   2.475       .  S
O383        C384   1.294       .  A
C384        C515   1.477       .  S
Zr385       O386   2.454       .  S
Zr385       O387   2.451       .  S
Zr385       O391   2.361       .  S
Zr385       O392   2.354       .  S
Zr385       O415   2.341       .  S
Zr385       O417   2.405       .  S
O386        H429   0.990       .  S
O387        H428   0.988       .  S
O387        H432   0.989       .  S
Zr388       O389   2.441       .  S
Zr388       O390   2.435       .  S
Zr388       O392   2.387       .  S
Zr388       O391   2.332       .  S
Zr388       O416   2.354       .  S
Zr388       O418   2.386       .  S
O389        H430   0.990       .  S
O389        H433   0.990       .  S
O390        H423   0.990       .  S
O391       Zr411   2.381       .  S
O392       Zr412   2.381       .  S
O392        H419   0.965       .  S
O393       Zr405   2.360       .  S
O393        C395   1.255       .  A
O394       Zr412   2.523       .  S
O394        C395   1.277       .  A
C395       C1529   1.524   1_455  S
O396       Zr408   2.406       .  S
O396        C398   1.281       .  A
O397       Zr411   2.467       .  S
O397        C398   1.294       .  A
C398        C498   1.477       .  S
O399       Zr408   2.408       .  S
O399        C401   1.283       .  A
O400       Zr412   2.427       .  S
O400        C401   1.287       .  A
C401        C918   1.474       .  S
O402       Zr405   2.465       .  S
O402        C404   1.291       .  A
O403       Zr411   2.380       .  S
O403        C404   1.280       .  A
C404       C1568   1.478   1_455  S
Zr405       O406   2.446       .  S
Zr405      O1351   2.437   1_455  S
Zr405       O413   2.398       .  S
Zr405       O414   2.345       .  S
Zr405       O417   2.362       .  S
Zr405       O415   2.424       .  S
O406        H426   0.990       .  S
O406       H1375   0.989   1_455  S
O407      Zr1349   2.437       .  S
O407        H427   0.990       .  S
Zr408       O409   2.435       .  S
Zr408       O410   2.433       .  S
Zr408       O414   2.376       .  S
Zr408       O413   2.367       .  S
Zr408       O418   2.367       .  S
Zr408       O416   2.364       .  S
O409        H425   0.991       .  S
O410        H424   0.990       .  S
O410        H434   0.990       .  S
Zr411       O414   2.364       .  S
Zr411       O416   2.400       .  S
Zr411       O417   2.406       .  S
Zr412       O413   2.472       .  S
Zr412       O415   2.425       .  S
Zr412       O418   2.424       .  S
O413        H421   0.966       .  S
O416        H420   0.966       .  S
O417        H422   0.966       .  S
H431       O1350   0.989       .  S
O435       Zr447   2.383       .  S
O435        C437   1.257   1_545  A
O436       Zr473   2.504   1_565  S
O436        C437   1.282       .  A
C437        C613   1.506       .  S
O438       Zr450   2.373       .  S
O438        C440   1.276       .  A
O439       Zr474   2.541       .  S
O439        C440   1.310       .  A
C440        C543   1.491       .  S
O441       Zr450   2.423       .  S
O441        C443   1.280       .  A
O442       Zr473   2.385       .  S
O442        C443   1.279       .  A
C443        C823   1.458       .  S
O444       Zr447   2.424       .  S
O444        C446   1.283       .  A
O445       Zr474   2.443       .  S
O445        C446   1.291       .  A
C446        C501   1.480       .  S
Zr447       O448   2.465       .  S
Zr447       O449   2.447       .  S
Zr447       O453   2.361       .  S
Zr447       O454   2.324       .  S
Zr447       O477   2.338       .  S
Zr447       O479   2.410       .  S
O448        H491   0.989       .  S
O449        H494   0.989       .  S
O449       H1434   0.987       .  S
Zr450       O451   2.437       .  S
Zr450       O452   2.434       .  S
Zr450       O454   2.373       .  S
Zr450       O453   2.355       .  S
Zr450       O478   2.370       .  S
Zr450       O480   2.357       .  S
O451        H492   0.988       .  S
O451        H495   0.990       .  S
O452        H485   0.990       .  S
O453       Zr473   2.370       .  S
O454       Zr474   2.384       .  S
O454        H481   0.965       .  S
O455       Zr467   2.405       .  S
O455        C457   1.266       .  A
O456       Zr474   2.532       .  S
O456        C457   1.302       .  A
C457       C1473   1.498   1_455  S
O458       Zr470   2.421       .  S
O458        C460   1.283       .  A
O459       Zr473   2.464       .  S
O459        C460   1.293       .  A
C460        C512   1.477       .  S
O461       Zr470   2.458       .  S
O461        C463   1.293       .  A
O462       Zr474   2.392       .  S
O462        C463   1.283       .  A
C463        C806   1.466       .  S
O464      Zr1411   2.466       .  S
O464        C466   1.289       .  A
O465       Zr473   2.408       .  S
O465       C1410   1.282       .  A
C466       O1409   1.282       .  A
C466        C711   1.488       .  S
Zr467      O1408   2.466       .  S
Zr467       O468   2.449   1_455  S
Zr467      O1413   2.439   1_455  S
Zr467       O475   2.402       .  S
Zr467       O476   2.364       .  S
Zr467       O479   2.387       .  S
Zr467       O477   2.417       .  S
O468        H488   0.989       .  S
O468       H1437   0.989       .  S
O469      Zr1411   2.439       .  S
O469        H489   0.990       .  S
Zr470       O471   2.435       .  S
Zr470       O472   2.435       .  S
Zr470       O476   2.405       .  S
Zr470       O475   2.346       .  S
Zr470       O480   2.374       .  S
Zr470       O478   2.382       .  S
O471        H487   0.990       .  S
O472        H486   0.990       .  S
O472        H496   0.990       .  S
Zr473       O476   2.357       .  S
Zr473       O478   2.402       .  S
Zr473       O479   2.393       .  S
Zr474       O475   2.426       .  S
Zr474       O477   2.397       .  S
Zr474       O480   2.426       .  S
O475        H483   0.962       .  S
O478        H482   0.966       .  S
O479        H484   0.966       .  S
H490       O1393   0.987       .  S
H493       O1412   0.989       .  S
C497        C498   1.403       .  A
C497        C502   1.407       .  A
C497        H504   1.084       .  S
C498        C499   1.419       .  A
C499        C500   1.400       .  A
C499        N506   1.440       .  S
C500        C501   1.402       .  A
C500        H505   1.085       .  S
C501        C502   1.420       .  A
C502        N503   1.438       .  S
N503        H507   1.045       .  S
N503        H508   1.043       .  S
N506        H509   1.043       .  S
N506        H510   1.046       .  S
C511        C512   1.399       .  A
C511        C516   1.406   1_556  A
C511        H518   1.084       .  S
C512        C513   1.420       .  A
C513        C514   1.407       .  A
C513        N520   1.438       .  S
C514        C515   1.401   1_556  A
C514        H519   1.084       .  S
C515        C516   1.416       .  A
C516        N517   1.439       .  S
N517        H521   1.046       .  S
N517        H522   1.043       .  S
N520        H523   1.043       .  S
N520        H524   1.045       .  S
C525        C526   1.417       .  A
C525        C530   1.423       .  A
C525        H532   1.083       .  S
C526        C527   1.400       .  A
C527        C528   1.391       .  A
C527        N534   1.434       .  S
C528        C529   1.408       .  A
C528        H533   1.074       .  S
C529       C1401   1.498       .  S
C529        C530   1.419       .  A
C530        N531   1.436       .  S
N531        H535   1.045       .  S
N531       H1480   1.043       .  S
N534        H537   1.045       .  S
N534        H538   1.045       .  S
H536       N1475   1.043   1_455  S
C539        C540   1.417       .  A
C539        C544   1.405       .  A
C539        H546   1.083       .  S
C540        C541   1.417       .  A
C541        C542   1.428       .  A
C541        N548   1.436       .  S
C542        C543   1.415       .  A
C542        H547   1.083       .  S
C543        C544   1.404       .  A
C544        N545   1.433       .  S
N545        H549   1.046       .  S
N545        H550   1.046       .  S
N548        H551   1.046       .  S
N548        H552   1.045       .  S
C553        C554   1.403       .  A
C553        C558   1.408       .  A
C553        H560   1.084       .  S
C554        C555   1.410       .  A
C555        C556   1.394       .  A
C555        N562   1.433       .  S
C556        C557   1.401       .  A
C556        H561   1.085       .  S
C557        C558   1.409       .  A
C558        N559   1.437       .  S
N559        H563   1.046       .  S
N559        H564   1.046       .  S
N562        H565   1.045       .  S
N562        H566   1.042       .  S
C567        C568   1.410       .  A
C567        C572   1.412       .  A
C567        H574   1.083       .  S
C568        C569   1.417       .  A
C569        C570   1.397       .  A
C569        N576   1.440       .  S
C570        C571   1.406       .  A
C570        H575   1.083       .  S
C571        C572   1.415       .  A
C572        N573   1.438       .  S
N573        H577   1.046       .  S
N573        H578   1.045       .  S
N576        H579   1.046       .  S
N576        H580   1.046       .  S
C581        C582   1.415       .  A
C581        C586   1.419       .  A
C581        H588   1.084       .  S
C582        C583   1.404       .  A
C583        C584   1.413       .  A
C583        N590   1.437       .  S
C584        C585   1.415       .  A
C584        H589   1.072       .  S
C585       C1339   1.524       .  S
C585        C586   1.426       .  A
C586        N587   1.438       .  S
N587        H591   1.046       .  S
N587       H1536   1.038       .  S
N590        H593   1.045       .  S
N590        H594   1.045       .  S
H592       N1531   1.038   1_455  S
C595        C596   1.412       .  A
C595        C600   1.421       .  A
C595        H602   1.084       .  S
C596        C597   1.418       .  A
C597        C598   1.404       .  A
C597        N604   1.441       .  S
C598        C599   1.410       .  A
C598        H603   1.085       .  S
C599        C600   1.420       .  A
C600        N601   1.436       .  S
N601        H605   1.046       .  S
N601        H606   1.044       .  S
N604        H607   1.044       .  S
N604        H608   1.046       .  S
C609        C610   1.420       .  A
C609        C614   1.419       .  A
C609        H616   1.083       .  S
C610       C1555   1.398       .  A
C611       C1554   1.398       .  A
C611       C1556   1.393       .  A
C611        N618   1.440       .  S
C612        C613   1.406       .  A
C612       C1555   1.393       .  A
C612       H1561   1.060       .  S
C613        C614   1.415       .  A
C614        N615   1.437       .  S
N615        H619   1.045       .  S
N615        H620   1.042       .  S
H617       C1556   1.060       .  S
N618        H621   1.045       .  S
N618        H622   1.045       .  S
C623        C624   1.407       .  A
C623        C628   1.413       .  A
C623        H630   1.083       .  S
C624       C1348   1.478       .  S
C624       C1569   1.409   1_545  A
C625       C1568   1.409   1_465  A
C625       C1570   1.394   1_455  A
C625        N632   1.440       .  S
C626        C627   1.406       .  A
C626       C1569   1.394       .  A
C626        H631   1.083       .  S
C627        C628   1.414   1_565  A
C628        N629   1.437       .  S
N629        H633   1.046       .  S
N629        H634   1.045       .  S
N632        H635   1.046       .  S
N632        H636   1.046       .  S
C637        C638   1.409       .  A
C637        C642   1.420       .  A
C637        H644   1.084       .  S
C638        C639   1.422       .  A
C639        C640   1.432       .  A
C639        N646   1.436       .  S
C640        C641   1.413       .  A
C640        H645   1.083       .  S
C641        C642   1.421       .  A
C642        N643   1.438       .  S
N643        H647   1.046       .  S
N643        H648   1.045       .  S
N646        H649   1.045       .  S
N646        H650   1.046       .  S
C651        C652   1.419       .  A
C651        C656   1.421       .  A
C651        H658   1.083       .  S
C652        C653   1.416       .  A
C653        C654   1.423       .  A
C653        N660   1.437   1_545  S
C654        C655   1.422       .  A
C654        H659   1.081       .  S
C655        C656   1.413       .  A
C656        N657   1.435       .  S
N657        H661   1.045       .  S
N657        H662   1.044       .  S
N660        H663   1.044       .  S
N660        H664   1.045       .  S
C665        C666   1.411       .  A
C665        C670   1.410       .  A
C665        H672   1.084       .  S
C666        C667   1.410       .  A
C667        C668   1.390       .  A
C667        N674   1.434       .  S
C668        C669   1.408       .  A
C668        H673   1.084       .  S
C669        C670   1.408       .  A
C670        N671   1.437       .  S
N671        H675   1.046       .  S
N671        H676   1.046       .  S
N674        H677   1.046       .  S
N674        H678   1.045       .  S
C679        C680   1.404       .  A
C679        C684   1.407       .  A
C679        H686   1.084       .  S
C680        C681   1.411       .  A
C681        C682   1.404       .  A
C681        N688   1.435       .  S
C682        C683   1.400       .  A
C682        H687   1.084       .  S
C683        C684   1.408       .  A
C684        N685   1.436       .  S
N685        H689   1.046       .  S
N685        H690   1.045       .  S
N688        H691   1.045       .  S
N688        H692   1.046       .  S
C693        C694   1.421       .  A
C693        C698   1.419       .  A
C693        H700   1.084       .  S
C694        C695   1.392       .  A
C695        C696   1.388       .  A
C695        N702   1.432       .  S
C696        C697   1.398       .  A
C696        H701   1.061   1_565  S
C697        C698   1.404       .  A
C698        N699   1.436       .  S
N699        H703   1.045       .  S
N699        H704   1.046       .  S
N702        H705   1.044       .  S
N702        H706   1.045       .  S
C707        C708   1.403       .  A
C707        C712   1.409       .  A
C707        H714   1.084   1_545  S
C708       C1653   1.407       .  A
C709        C710   1.406   1_655  A
C709       C1652   1.407       .  A
C709        N716   1.436   1_655  S
C710       C1655   1.406   1_455  A
C710        H715   1.084       .  S
C711        C712   1.422       .  A
C711       C1654   1.406       .  A
C712        N713   1.439       .  S
N713        H717   1.046       .  S
N713        H718   1.041       .  S
N716        H719   1.046   1_455  S
N716        H720   1.046       .  S
C721        C722   1.422       .  A
C721        C726   1.416       .  A
C721        H728   1.084       .  S
C722        C723   1.428       .  A
C723        C724   1.428       .  A
C723        N730   1.437   1_554  S
C724        C725   1.420       .  A
C724        H729   1.084   1_554  S
C725        C726   1.413       .  A
C726        N727   1.437       .  S
N727        H731   1.046       .  S
N727        H732   1.043       .  S
N730        H733   1.038       .  S
N730        H734   1.046       .  S
C735        C736   1.417       .  A
C735        C740   1.414       .  A
C735        H742   1.084       .  S
C736        C737   1.429       .  A
C737        C738   1.422       .  A
C737        N744   1.437       .  S
C738        C739   1.414       .  A
C738        H743   1.084       .  S
C739        C740   1.417       .  A
C740        N741   1.438   1_545  S
N741        H745   1.046   1_565  S
N741        H746   1.045       .  S
N744        H747   1.039       .  S
N744        H748   1.046       .  S
C749        C750   1.405   1_556  A
C749        C754   1.405       .  A
C749        H756   1.084       .  S
C750        C751   1.405   1_554  A
C751        C752   1.404       .  A
C751        N758   1.439   1_556  S
C752        C753   1.402       .  A
C752        H757   1.083       .  S
C753        C754   1.416       .  A
C754        N755   1.438       .  S
N755        H759   1.046       .  S
N755        H760   1.045       .  S
N758        H761   1.045       .  S
N758        H762   1.045   1_554  S
C763        C764   1.391       .  A
C763        C768   1.383       .  A
C763        H770   1.086       .  S
C764        C765   1.415       .  A
C765        C766   1.403       .  A
C765        N772   1.437       .  S
C766        C767   1.404       .  A
C766        H771   1.084       .  S
C767        C768   1.417       .  A
C768        N769   1.435       .  S
N769        H773   1.046       .  S
N769        H774   1.046       .  S
N772        H775   1.042       .  S
N772        H776   1.046       .  S
C777        C778   1.414       .  A
C777        C782   1.397       .  A
C777        H784   1.073       .  S
C778        C779   1.418       .  A
C779        C780   1.418       .  A
C779        N786   1.437   1_556  S
C780        C781   1.417       .  A
C780        H785   1.084   1_556  S
C781        C782   1.400       .  A
C782        N783   1.440       .  S
N783        H787   1.046       .  S
N783        H788   1.046       .  S
N786        H789   1.041       .  S
N786        H790   1.046       .  S
C791        C792   1.411       .  A
C791        C796   1.409       .  A
C791        H798   1.083   1_556  S
C792        C793   1.405       .  A
C793        C794   1.396       .  A
C793        N800   1.434       .  S
C794        C795   1.415       .  A
C794        H799   1.083       .  S
C795        C796   1.414       .  A
C796        N797   1.431   1_556  S
N797        H801   1.045   1_554  S
N797        H802   1.045       .  S
N800        H803   1.045       .  S
N800        H804   1.045       .  S
C805        C806   1.408       .  A
C805        C810   1.399       .  A
C805        H812   1.084       .  S
C806        C807   1.419       .  A
C807        C808   1.396       .  A
C807        N814   1.442       .  S
C808        C809   1.403       .  A
C808        H813   1.085       .  S
C809        C810   1.401       .  A
C810        N811   1.437       .  S
N811        H815   1.046       .  S
N811        H816   1.045       .  S
N814        H817   1.040       .  S
N814        H818   1.046       .  S
C819        C820   1.404       .  A
C819        C824   1.388       .  A
C819        H826   1.085       .  S
C820        C821   1.409       .  A
C821        C822   1.387       .  A
C821        N828   1.433       .  S
C822        C823   1.405   1_565  A
C822        H827   1.085   1_565  S
C823        C824   1.408   1_545  A
C824        N825   1.431       .  S
N825        H829   1.043       .  S
N825        H830   1.045   1_565  S
N828        H831   1.045       .  S
N828        H832   1.045       .  S
C833        C834   1.402       .  A
C833        C838   1.401       .  A
C833        H840   1.083       .  S
C834        C835   1.414       .  A
C835        C836   1.413       .  A
C835        N842   1.432       .  S
C836        C837   1.408       .  A
C836        H841   1.084       .  S
C837        C838   1.417       .  A
C838        N839   1.436       .  S
N839        H843   1.043       .  S
N839        H844   1.046       .  S
N842        H845   1.045       .  S
N842        H846   1.046       .  S
C847        C848   1.402       .  A
C847        C852   1.401       .  A
C847        H854   1.084       .  S
C848        C849   1.409       .  A
C849        C850   1.405       .  A
C849        N856   1.438       .  S
C850        C851   1.410       .  A
C850        H855   1.083       .  S
C851        C852   1.418       .  A
C852        N853   1.437       .  S
N853        H857   1.046       .  S
N853        H858   1.045       .  S
N856        H859   1.046       .  S
N856        H860   1.046       .  S
C861        C862   1.399       .  A
C861        C866   1.401       .  A
C861        H868   1.086       .  S
C862        C863   1.413       .  A
C863        C864   1.404       .  A
C863        N870   1.435       .  S
C864        C865   1.403       .  A
C864        H869   1.084       .  S
C865        C866   1.411       .  A
C866        N867   1.437       .  S
N867        H871   1.046       .  S
N867        H872   1.038       .  S
N870        H873   1.045       .  S
N870        H874   1.046       .  S
C875        C876   1.400       .  A
C875        C880   1.400       .  A
C875        H882   1.084       .  S
C876        C877   1.417       .  A
C877        C878   1.407       .  A
C877        N884   1.438       .  S
C878        C879   1.400       .  A
C878        H883   1.084       .  S
C879        C880   1.418       .  A
C880        N881   1.438       .  S
N881        H885   1.045       .  S
N881        H886   1.042       .  S
N884        H887   1.046       .  S
N884        H888   1.046       .  S
C889        C890   1.400       .  A
C889        C894   1.392       .  A
C889        H896   1.084       .  S
C890        C891   1.405       .  A
C891        C892   1.398       .  A
C891        N898   1.438       .  S
C892        C893   1.406       .  A
C892        H897   1.084       .  S
C893        C894   1.414       .  A
C894        N895   1.439       .  S
N895        H899   1.046       .  S
N895        H900   1.046       .  S
N898        H901   1.046       .  S
N898        H902   1.046       .  S
C903        C904   1.400       .  A
C903        C908   1.394       .  A
C903        H910   1.085   1_455  S
C904        C905   1.412       .  A
C905        C906   1.390       .  A
C905        N912   1.439       .  S
C906        C907   1.397       .  A
C906        H911   1.085       .  S
C907        C908   1.403       .  A
C908        N909   1.438       .  S
N909        H913   1.046       .  S
N909        H914   1.045       .  S
N912        H915   1.043       .  S
N912        H916   1.046       .  S
C917        C918   1.412       .  A
C917        C922   1.389       .  A
C917        H924   1.083       .  S
C918        C919   1.409       .  A
C919        C920   1.401       .  A
C919        N926   1.438       .  S
C920        C921   1.406       .  A
C920        H925   1.078       .  S
C921        C922   1.403       .  A
C922        N923   1.437       .  S
N923        H927   1.046       .  S
N923        H928   1.045       .  S
N926        H929   1.046       .  S
N926        H930   1.046       .  S
C931        C932   1.400       .  A
C931        C936   1.400       .  A
C931        H938   1.084       .  S
C932        C933   1.403       .  A
C933        C934   1.393       .  A
C933        N940   1.439       .  S
C934        C935   1.399       .  A
C934        H939   1.084       .  S
C935        C936   1.404       .  A
C936        N937   1.437       .  S
N937        H941   1.046       .  S
N937        H942   1.045   1_565  S
N940        H943   1.046       .  S
N940        H944   1.046       .  S
O945       Zr957   2.428       .  S
O945        C947   1.285       .  A
O946       Zr983   2.387       .  S
O946        C947   1.277       .  A
C947       C1876   1.443       .  S
O948       Zr960   2.444       .  S
O948        C950   1.290       .  A
O949       Zr984   2.438       .  S
O949        C950   1.288       .  A
C950       C1778   1.493       .  S
O951       Zr960   2.425       .  S
O951        C953   1.285       .  A
O952       Zr983   2.381       .  S
O952        C953   1.279       .  A
C953       C1834   1.457       .  S
O954       Zr957   2.451       .  S
O954        C956   1.290       .  A
O955       Zr984   2.353       .  S
O955        C956   1.272       .  A
C956       C1851   1.442       .  S
Zr957       O958   2.434       .  S
Zr957       O959   2.437       .  S
Zr957       O963   2.369       .  S
Zr957       O964   2.358       .  S
Zr957       O987   2.347       .  S
Zr957       O989   2.372       .  S
O958       H1001   0.990       .  S
O959       H1000   0.990       .  S
O959       H1004   0.990       .  S
Zr960       O961   2.435       .  S
Zr960       O962   2.434       .  S
Zr960       O964   2.370       .  S
Zr960       O963   2.364       .  S
Zr960       O988   2.385       .  S
Zr960       O990   2.356       .  S
O961       H1002   0.990       .  S
O961       H1005   0.990       .  S
O962        H995   0.990       .  S
O963       Zr983   2.378       .  S
O964       Zr984   2.381       .  S
O964        H991   0.966       .  S
O965       Zr977   2.418       .  S
O965        C967   1.275       .  A
O966       Zr984   2.417       .  S
O966        C967   1.284       .  A
C967       C1865   1.467       .  S
O968       Zr980   2.460       .  S
O968        C970   1.292       .  A
O969       Zr983   2.406       .  S
O969        C970   1.282       .  A
C970       C1820   1.480       .  S
O971       Zr980   2.474       .  S
O971        C973   1.294       .  A
O972       Zr984   2.391       .  S
O972        C973   1.277       .  A
C973       C1809   1.467       .  S
O974       Zr977   2.448       .  S
O974        C976   1.287       .  A
O975       Zr983   2.409       .  S
O975        C976   1.283       .  A
C976       C1795   1.492       .  S
Zr977       O978   2.437       .  S
Zr977       O979   2.433       .  S
Zr977       O985   2.398       .  S
Zr977       O986   2.359       .  S
Zr977       O989   2.364       .  S
Zr977       O987   2.367       .  S
O978        H998   0.989       .  S
O978       H1003   0.990       .  S
O979        H999   0.990       .  S
Zr980       O981   2.435       .  S
Zr980       O982   2.435       .  S
Zr980       O986   2.382       .  S
Zr980       O985   2.373       .  S
Zr980       O990   2.367       .  S
Zr980       O988   2.375       .  S
O981        H997   0.990       .  S
O982        H996   0.990       .  S
O982       H1006   0.990       .  S
Zr983       O986   2.365       .  S
Zr983       O988   2.384       .  S
Zr983       O989   2.372       .  S
Zr984       O985   2.398       .  S
Zr984       O987   2.377       .  S
Zr984       O990   2.368       .  S
O985        H993   0.966       .  S
O988        H992   0.966       .  S
O989        H994   0.965       .  S
O1007     Zr1019   2.396       .  S
O1007      C1009   1.280       .  A
O1008     Zr1045   2.484       .  S
O1008      C1009   1.299       .  A
C1009      C1736   1.472       .  S
O1010     Zr1022   2.396       .  S
O1010      C1012   1.258       .  A
O1011     Zr1046   2.474       .  S
O1011      C1012   1.286       .  A
C1012      C1697   1.466       .  S
O1013     Zr1022   2.429       .  S
O1013      C1015   1.286   1_556  A
O1014     Zr1045   2.419   1_554  S
O1014      C1015   1.285       .  A
C1015      C1792   1.476       .  S
O1016     Zr1019   2.456       .  S
O1016      C1018   1.288       .  A
O1017     Zr1046   2.361       .  S
O1017      C1018   1.279       .  A
C1018      C1753   1.458       .  S
Zr1019     O1020   2.434       .  S
Zr1019     O1021   2.435       .  S
Zr1019     O1025   2.395       .  S
Zr1019     O1026   2.366       .  S
Zr1019     O1049   2.383       .  S
Zr1019     O1051   2.389       .  S
O1020      H1063   0.990       .  S
O1021      H1062   0.990       .  S
O1021      H1066   0.990       .  S
Zr1022     O1023   2.440       .  S
Zr1022     O1024   2.428       .  S
Zr1022     O1026   2.426       .  S
Zr1022     O1025   2.349       .  S
Zr1022     O1050   2.385       .  S
Zr1022     O1052   2.424       .  S
O1023      H1064   0.990       .  S
O1023      H1067   0.989       .  S
O1024      H1057   0.990   1_556  S
O1025     Zr1045   2.394       .  S
O1026     Zr1046   2.387       .  S
O1026      H1053   0.967       .  S
O1027     Zr1039   2.432       .  S
O1027      C1029   1.284       .  A
O1028     Zr1046   2.455       .  S
O1028      C1029   1.290       .  A
C1029      C1781   1.496       .  S
O1030     Zr1042   2.395       .  S
O1030      C1032   1.264       .  A
O1031     Zr1045   2.515       .  S
O1031      C1032   1.290       .  A
C1032      C1722   1.505       .  S
O1033     Zr1042   2.419       .  S
O1033      C1035   1.278       .  A
O1034     Zr1046   2.384       .  S
O1034      C1035   1.276       .  A
C1035      C1708   1.451       .  S
O1036     Zr1039   2.424       .  S
O1036      C1038   1.289       .  A
O1037     Zr1045   2.381       .  S
O1037      C1038   1.280       .  A
C1038      C1764   1.456       .  S
Zr1039     O1040   2.433       .  S
Zr1039     O1041   2.434       .  S
Zr1039     O1047   2.338       .  S
Zr1039     O1048   2.348       .  S
Zr1039     O1051   2.359       .  S
Zr1039     O1049   2.383       .  S
O1040      H1060   0.988       .  S
O1040      H1065   0.990       .  S
O1041      H1061   0.990       .  S
Zr1042     O1043   2.441       .  S
Zr1042     O1044   2.439       .  S
Zr1042     O1048   2.363       .  S
Zr1042     O1047   2.316       .  S
Zr1042     O1052   2.382       .  S
Zr1042     O1050   2.379       .  S
O1043      H1059   0.990       .  S
O1044      H1058   0.990       .  S
O1044      H1068   0.989       .  S
Zr1045     O1048   2.423       .  S
Zr1045     O1050   2.410       .  S
Zr1045     O1051   2.438       .  S
Zr1046     O1047   2.291       .  S
Zr1046     O1049   2.404       .  S
Zr1046     O1052   2.397       .  S
O1047      H1055   0.950       .  S
O1050      H1054   0.966       .  S
O1051      H1056   0.966       .  S
O1069      C1071   1.267       .  A
O1070      C1071   1.293   1_556  A
C1071      C1638   1.477       .  S
O1072     Zr1084   2.376       .  S
O1072      C1074   1.275       .  A
O1073     Zr1108   2.589       .  S
O1073      C1074   1.322       .  A
C1074      C1669   1.517       .  S
O1075     Zr1084   2.510   1_556  S
O1076      C1077   1.272       .  A
C1077      C1739   1.500       .  S
O1078     Zr1081   2.423       .  S
O1078      C1080   1.281       .  A
O1079     Zr1108   2.438       .  S
O1079      C1080   1.288       .  A
C1080      C1627   1.469       .  S
Zr1081     O1082   2.435       .  S
Zr1081     O1083   2.434       .  S
Zr1081     O1087   2.354       .  S
Zr1081     O1088   2.369       .  S
Zr1081     O1111   2.347       .  S
Zr1081     O1113   2.400       .  S
O1083      H1124   0.989       .  S
O1083      H1128   0.990       .  S
Zr1084     O1085   2.438       .  S
Zr1084     O1086   2.435   1_554  S
Zr1084     O1088   2.415       .  S
Zr1084     O1087   2.296       .  S
Zr1084     O1112   2.364   1_554  S
Zr1084     O1114   2.399   1_554  S
O1085      H1126   0.990       .  S
O1085      H1129   0.990       .  S
O1086      H1119   0.990       .  S
O1087     Zr1107   2.362   1_554  S
O1088     Zr1108   2.397       .  S
O1088      H1115   0.965       .  S
O1089     Zr1101   2.348   1_554  S
O1089      C1091   1.267       .  A
O1090     Zr1108   2.581       .  S
O1090      C1091   1.318       .  A
C1091      C1683   1.499   1_565  S
O1092     Zr1104   2.427       .  S
O1092      C1094   1.286       .  A
O1093     Zr1107   2.436       .  S
O1093      C1094   1.291       .  A
C1094      C1610   1.478       .  S
O1095     Zr1104   2.511       .  S
O1095      C1097   1.303       .  A
O1096     Zr1108   2.384       .  S
O1096      C1097   1.280   1_554  A
C1097      C1725   1.492       .  S
O1098     Zr1101   2.481       .  S
O1098      C1100   1.293       .  A
O1099     Zr1107   2.399       .  S
O1099      C1100   1.282       .  A
C1100      C1652   1.480   1_565  S
Zr1101     O1102   2.438       .  S
Zr1101     O1103   2.435   1_566  S
Zr1101     O1109   2.397       .  S
Zr1101     O1110   2.328       .  S
Zr1101     O1113   2.342   1_556  S
Zr1101     O1111   2.412   1_556  S
O1102      H1122   0.990       .  S
O1102      H1127   0.990   1_565  S
O1103      H1123   0.990       .  S
Zr1104     O1105   2.434       .  S
Zr1104     O1106   2.434       .  S
Zr1104     O1110   2.388       .  S
Zr1104     O1109   2.346       .  S
Zr1104     O1114   2.342       .  S
Zr1104     O1112   2.402       .  S
O1105      H1121   0.990       .  S
O1106      H1120   0.990       .  S
O1106      H1130   0.990       .  S
Zr1107     O1110   2.375       .  S
Zr1107     O1112   2.400       .  S
Zr1107     O1113   2.393   1_556  S
Zr1108     O1109   2.407   1_554  S
Zr1108     O1111   2.396       .  S
Zr1108     O1114   2.391   1_554  S
O1109      H1117   0.965       .  S
O1112      H1116   0.966       .  S
O1113      H1118   0.966       .  S
O1131      C1133   1.269       .  A
O1132      C1133   1.290       .  A
C1133      C1554   1.490       .  S
O1134     Zr1146   2.342       .  S
O1134      C1136   1.268       .  A
O1135     Zr1170   2.597       .  S
O1135      C1136   1.322       .  A
C1136      C1585   1.511       .  S
O1137     Zr1146   2.427       .  S
O1138      C1139   1.278       .  A
C1139      C1848   1.439       .  S
O1140     Zr1143   2.406       .  S
O1140      C1142   1.281       .  A
O1141     Zr1170   2.448       .  S
O1141      C1142   1.291       .  A
C1142      C1613   1.480       .  S
Zr1143     O1144   2.434       .  S
Zr1143     O1145   2.430       .  S
Zr1143     O1149   2.367       .  S
Zr1143     O1150   2.369       .  S
Zr1143     O1173   2.361       .  S
Zr1143     O1175   2.391       .  S
O1145      H1186   0.990       .  S
O1145      H1190   0.989       .  S
Zr1146     O1147   2.437       .  S
Zr1146     O1148   2.434       .  S
Zr1146     O1150   2.387       .  S
Zr1146     O1149   2.318       .  S
Zr1146     O1174   2.354       .  S
Zr1146     O1176   2.377       .  S
O1147      H1188   0.989       .  S
O1147      H1191   0.990       .  S
O1148      H1181   0.990       .  S
O1149     Zr1169   2.374       .  S
O1150     Zr1170   2.397       .  S
O1150      H1177   0.965       .  S
O1151     Zr1163   2.366       .  S
O1151      C1153   1.270       .  A
O1152     Zr1170   2.579       .  S
O1152      C1153   1.317       .  A
C1153      C1596   1.513   1_565  S
O1154     Zr1166   2.393       .  S
O1154      C1156   1.278       .  A
O1155     Zr1169   2.474       .  S
O1155      C1156   1.296       .  A
C1156      C1624   1.469       .  S
O1157     Zr1166   2.424       .  S
O1157      C1159   1.285       .  A
O1158     Zr1170   2.388       .  S
O1158      C1159   1.283       .  A
C1159      C1837   1.466       .  S
O1160     Zr1163   2.470       .  S
O1160      C1162   1.290       .  A
O1161     Zr1169   2.379       .  S
O1161      C1162   1.279       .  A
C1162      C1571   1.484       .  S
Zr1163     O1164   2.443   1_565  S
Zr1163     O1165   2.435   1_565  S
Zr1163     O1171   2.398       .  S
Zr1163     O1172   2.336       .  S
Zr1163     O1175   2.344       .  S
Zr1163     O1173   2.398       .  S
O1164      H1184   0.990       .  S
O1164      H1189   0.990       .  S
O1165      H1185   0.990       .  S
Zr1166     O1167   2.433       .  S
Zr1166     O1168   2.435       .  S
Zr1166     O1172   2.367       .  S
Zr1166     O1171   2.354       .  S
Zr1166     O1176   2.341       .  S
Zr1166     O1174   2.370       .  S
O1167      H1183   0.990       .  S
O1168      H1182   0.990       .  S
O1168      H1192   0.990       .  S
Zr1169     O1172   2.370       .  S
Zr1169     O1174   2.384       .  S
Zr1169     O1175   2.397       .  S
Zr1170     O1171   2.411       .  S
Zr1170     O1173   2.404       .  S
Zr1170     O1176   2.392       .  S
O1171      H1179   0.965       .  S
O1174      H1178   0.966       .  S
O1175      H1180   0.966       .  S
O1193     Zr1205   2.492       .  S
O1193      C1195   1.291       .  A
O1194     Zr1231   2.370       .  S
O1194      C1195   1.275       .  A
C1195      C1823   1.469       .  S
O1196     Zr1208   2.416   1_556  S
O1196      C1198   1.280       .  A
O1197     Zr1232   2.426   1_556  S
O1197      C1198   1.285       .  A
C1198      C1501   1.463       .  S
O1199     Zr1208   2.375       .  S
O1199      C1201   1.263       .  A
O1200     Zr1231   2.495       .  S
O1200      C1201   1.296       .  A
C1201      C1694   1.459       .  S
O1202     Zr1205   2.374       .  S
O1202      C1204   1.264       .  A
O1203     Zr1232   2.568       .  S
O1203      C1204   1.302       .  A
C1204      C1666   1.539       .  S
Zr1205     O1206   2.435       .  S
Zr1205     O1207   2.438       .  S
Zr1205     O1211   2.352       .  S
Zr1205     O1212   2.419       .  S
Zr1205     O1235   2.404       .  S
Zr1205     O1237   2.340       .  S
O1206      H1249   0.990       .  S
O1207      H1248   0.991       .  S
O1207      H1252   0.990       .  S
Zr1208     O1209   2.433   1_554  S
Zr1208     O1210   2.434   1_554  S
Zr1208     O1212   2.350       .  S
Zr1208     O1211   2.403       .  S
Zr1208     O1236   2.376       .  S
Zr1208     O1238   2.346       .  S
O1209      H1250   0.990       .  S
O1209      H1253   0.990       .  S
O1210      H1243   0.990       .  S
O1211     Zr1231   2.370       .  S
O1212     Zr1232   2.411       .  S
O1212      H1239   0.966       .  S
O1213     Zr1225   2.535       .  S
O1213      C1215   1.307       .  A
O1214     Zr1232   2.389       .  S
O1214      C1215   1.281       .  A
C1215      C1526   1.509       .  S
O1216     Zr1228   2.572       .  S
O1216      C1218   1.312       .  A
O1217     Zr1231   2.336       .  S
O1217      C1218   1.270       .  A
C1218      C1540   1.490       .  S
O1219     Zr1228   2.412       .  S
O1219      C1221   1.276       .  A
O1220     Zr1232   2.540       .  S
O1220      C1221   1.305       .  A
C1221      C1680   1.529       .  S
O1222     Zr1225   2.428       .  S
O1222      C1224   1.289       .  A
O1223     Zr1231   2.446       .  S
O1223      C1224   1.291       .  A
C1224      C1515   1.492       .  S
Zr1225     O1226   2.437       .  S
Zr1225     O1227   2.433       .  S
Zr1225     O1233   2.337       .  S
Zr1225     O1234   2.403       .  S
Zr1225     O1237   2.392       .  S
Zr1225     O1235   2.338       .  S
O1226      H1246   0.990       .  S
O1226      H1251   0.990       .  S
O1227      H1247   0.990       .  S
Zr1228     O1229   2.434       .  S
Zr1228     O1230   2.437       .  S
Zr1228     O1234   2.338       .  S
Zr1228     O1233   2.421       .  S
Zr1228     O1238   2.423       .  S
Zr1228     O1236   2.324       .  S
O1229      H1245   0.990       .  S
O1230      H1244   0.990       .  S
O1230      H1254   0.990       .  S
Zr1231     O1234   2.392       .  S
Zr1231     O1236   2.380       .  S
Zr1231     O1237   2.385       .  S
Zr1232     O1233   2.431       .  S
Zr1232     O1235   2.401       .  S
Zr1232     O1238   2.411       .  S
O1233      H1241   0.965       .  S
O1236      H1240   0.962       .  S
O1237      H1242   0.963       .  S
O1255     Zr1267   2.459       .  S
O1255      C1257   1.289       .  A
O1256     Zr1293   2.347       .  S
O1256      C1257   1.272       .  A
C1257      C1711   1.470       .  S
O1258     Zr1270   2.454       .  S
O1258      C1260   1.290       .  A
O1259     Zr1294   2.400       .  S
O1259      C1260   1.282       .  A
C1260      C1512   1.493       .  S
O1261     Zr1270   2.402       .  S
O1261      C1263   1.284       .  A
O1262     Zr1293   2.438       .  S
O1262      C1263   1.289       .  A
C1263      C1806   1.455       .  S
O1264     Zr1267   2.336       .  S
O1264      C1266   1.267       .  A
O1265     Zr1294   2.602       .  S
O1265      C1266   1.322       .  A
C1266      C1582   1.507       .  S
Zr1267     O1268   2.436       .  S
Zr1267     O1269   2.436       .  S
Zr1267     O1273   2.332       .  S
Zr1267     O1274   2.397       .  S
Zr1267     O1297   2.395       .  S
Zr1267     O1299   2.332       .  S
O1268      H1311   0.990       .  S
O1269      H1310   0.990       .  S
O1269      H1314   0.990       .  S
Zr1270     O1271   2.434       .  S
Zr1270     O1272   2.434       .  S
Zr1270     O1274   2.340       .  S
Zr1270     O1273   2.386       .  S
Zr1270     O1298   2.347       .  S
Zr1270     O1300   2.351       .  S
O1271      H1312   0.990       .  S
O1271      H1315   0.990       .  S
O1272      H1305   0.990       .  S
O1273     Zr1293   2.374       .  S
O1274     Zr1294   2.386       .  S
O1274      H1301   0.965       .  S
O1275     Zr1287   2.488       .  S
O1275      C1277   1.298       .  A
O1276     Zr1294   2.406       .  S
O1276      C1277   1.282       .  A
C1277      C1470   1.492       .  S
O1278     Zr1290   2.553       .  S
O1278      C1280   1.301       .  A
O1279     Zr1293   2.374       .  S
O1279      C1280   1.268       .  A
C1280      C1484   1.521       .  S
O1281     Zr1290   2.415       .  S
O1281      C1283   1.275       .  A
O1282     Zr1294   2.545       .  S
O1282      C1283   1.306       .  A
C1283      C1599   1.531       .  S
O1284     Zr1287   2.416       .  S
O1284      C1286   1.282       .  A
O1285     Zr1293   2.448       .  S
O1285      C1286   1.291       .  A
C1286      C1498   1.464       .  S
Zr1287     O1288   2.436       .  S
Zr1287     O1289   2.435       .  S
Zr1287     O1295   2.331       .  S
Zr1287     O1296   2.409       .  S
Zr1287     O1299   2.376       .  S
Zr1287     O1297   2.364       .  S
O1288      H1308   0.990       .  S
O1288      H1313   0.990       .  S
O1289      H1309   0.990       .  S
Zr1290     O1291   2.435       .  S
Zr1290     O1292   2.438       .  S
Zr1290     O1296   2.366       .  S
Zr1290     O1295   2.431       .  S
Zr1290     O1300   2.423       .  S
Zr1290     O1298   2.348       .  S
O1291      H1307   0.990       .  S
O1292      H1306   0.990       .  S
O1292      H1316   0.989       .  S
Zr1293     O1296   2.371       .  S
Zr1293     O1298   2.386       .  S
Zr1293     O1299   2.368       .  S
Zr1294     O1295   2.432       .  S
Zr1294     O1297   2.388       .  S
Zr1294     O1300   2.421       .  S
O1295      H1303   0.964       .  S
O1298      H1302   0.963       .  S
O1299      H1304   0.965       .  S
O1317     Zr1329   2.413       .  S
O1317      C1319   1.267   1_545  A
O1318     Zr1355   2.479   1_565  S
O1318      C1319   1.282       .  A
C1319      C1641   1.484       .  S
O1320     Zr1332   2.356       .  S
O1320      C1322   1.270       .  A
O1321     Zr1356   2.542       .  S
O1321      C1322   1.309       .  A
C1322      C1543   1.496       .  S
O1323     Zr1332   2.424       .  S
O1323      C1325   1.282       .  A
O1324     Zr1355   2.393       .  S
O1324      C1325   1.282       .  A
C1325      C1879   1.445   1_545  S
O1326     Zr1329   2.404       .  S
O1326      C1328   1.279       .  A
O1327     Zr1356   2.475       .  S
O1327      C1328   1.294       .  A
C1328      C1459   1.477       .  S
Zr1329     O1330   2.454       .  S
Zr1329     O1331   2.451       .  S
Zr1329     O1335   2.361       .  S
Zr1329     O1336   2.354       .  S
Zr1329     O1359   2.341       .  S
Zr1329     O1361   2.405       .  S
O1330      H1373   0.990       .  S
O1331      H1372   0.988       .  S
O1331      H1376   0.989       .  S
Zr1332     O1333   2.441       .  S
Zr1332     O1334   2.435       .  S
Zr1332     O1336   2.387       .  S
Zr1332     O1335   2.332       .  S
Zr1332     O1360   2.354       .  S
Zr1332     O1362   2.386       .  S
O1333      H1374   0.990       .  S
O1333      H1377   0.990       .  S
O1334      H1367   0.990       .  S
O1335     Zr1355   2.381       .  S
O1336     Zr1356   2.381       .  S
O1336      H1363   0.965       .  S
O1337     Zr1349   2.360       .  S
O1337      C1339   1.255       .  A
O1338     Zr1356   2.523       .  S
O1338      C1339   1.277       .  A
O1340     Zr1352   2.406       .  S
O1340      C1342   1.281       .  A
O1341     Zr1355   2.467       .  S
O1341      C1342   1.294       .  A
C1342      C1442   1.477       .  S
O1343     Zr1352   2.408       .  S
O1343      C1345   1.283       .  A
O1344     Zr1356   2.427       .  S
O1344      C1345   1.287       .  A
C1345      C1862   1.474       .  S
O1346     Zr1349   2.465       .  S
O1346      C1348   1.291       .  A
O1347     Zr1355   2.380       .  S
O1347      C1348   1.280       .  A
Zr1349     O1350   2.446       .  S
Zr1349     O1357   2.398       .  S
Zr1349     O1358   2.345       .  S
Zr1349     O1361   2.362       .  S
Zr1349     O1359   2.424       .  S
O1350      H1370   0.990       .  S
O1351      H1371   0.990       .  S
Zr1352     O1353   2.435       .  S
Zr1352     O1354   2.433       .  S
Zr1352     O1358   2.376       .  S
Zr1352     O1357   2.367       .  S
Zr1352     O1362   2.367       .  S
Zr1352     O1360   2.364       .  S
O1353      H1369   0.991       .  S
O1354      H1368   0.990       .  S
O1354      H1378   0.990       .  S
Zr1355     O1358   2.364       .  S
Zr1355     O1360   2.400       .  S
Zr1355     O1361   2.406       .  S
Zr1356     O1357   2.473       .  S
Zr1356     O1359   2.425       .  S
Zr1356     O1362   2.424       .  S
O1357      H1365   0.966       .  S
O1360      H1364   0.966       .  S
O1361      H1366   0.966       .  S
O1379     Zr1391   2.383       .  S
O1379      C1381   1.257   1_545  A
O1380     Zr1417   2.504   1_565  S
O1380      C1381   1.282       .  A
C1381      C1557   1.506       .  S
O1382     Zr1394   2.373       .  S
O1382      C1384   1.276       .  A
O1383     Zr1418   2.541       .  S
O1383      C1384   1.310       .  A
C1384      C1487   1.491       .  S
O1385     Zr1394   2.423       .  S
O1385      C1387   1.280       .  A
O1386     Zr1417   2.385       .  S
O1386      C1387   1.279       .  A
C1387      C1767   1.458       .  S
O1388     Zr1391   2.424       .  S
O1388      C1390   1.283       .  A
O1389     Zr1418   2.443       .  S
O1389      C1390   1.291       .  A
C1390      C1445   1.480       .  S
Zr1391     O1392   2.465       .  S
Zr1391     O1393   2.447       .  S
Zr1391     O1397   2.361       .  S
Zr1391     O1398   2.324       .  S
Zr1391     O1421   2.338       .  S
Zr1391     O1423   2.410       .  S
O1392      H1435   0.989       .  S
O1393      H1438   0.989       .  S
Zr1394     O1395   2.437       .  S
Zr1394     O1396   2.434       .  S
Zr1394     O1398   2.373       .  S
Zr1394     O1397   2.355       .  S
Zr1394     O1422   2.370       .  S
Zr1394     O1424   2.357       .  S
O1395      H1436   0.988       .  S
O1395      H1439   0.990       .  S
O1396      H1429   0.990       .  S
O1397     Zr1417   2.370       .  S
O1398     Zr1418   2.384       .  S
O1398      H1425   0.965       .  S
O1399     Zr1411   2.405       .  S
O1399      C1401   1.266       .  A
O1400     Zr1418   2.532       .  S
O1400      C1401   1.302       .  A
O1402     Zr1414   2.421       .  S
O1402      C1404   1.283       .  A
O1403     Zr1417   2.464       .  S
O1403      C1404   1.293       .  A
C1404      C1456   1.477       .  S
O1405     Zr1414   2.458       .  S
O1405      C1407   1.293       .  A
O1406     Zr1418   2.392       .  S
O1406      C1407   1.283       .  A
C1407      C1750   1.466       .  S
O1408      C1410   1.289       .  A
O1409     Zr1417   2.408       .  S
C1410      C1655   1.488   1_455  S
Zr1411     O1412   2.449       .  S
Zr1411     O1419   2.402       .  S
Zr1411     O1420   2.364       .  S
Zr1411     O1423   2.387       .  S
Zr1411     O1421   2.417       .  S
O1412      H1432   0.989       .  S
O1413      H1433   0.990       .  S
Zr1414     O1415   2.435       .  S
Zr1414     O1416   2.435       .  S
Zr1414     O1420   2.405       .  S
Zr1414     O1419   2.346       .  S
Zr1414     O1424   2.374       .  S
Zr1414     O1422   2.382       .  S
O1415      H1431   0.990       .  S
O1416      H1430   0.990       .  S
O1416      H1440   0.990       .  S
Zr1417     O1420   2.357       .  S
Zr1417     O1422   2.402       .  S
Zr1417     O1423   2.393       .  S
Zr1418     O1419   2.426       .  S
Zr1418     O1421   2.397       .  S
Zr1418     O1424   2.426       .  S
O1419      H1427   0.962       .  S
O1422      H1426   0.966       .  S
O1423      H1428   0.966       .  S
C1441      C1442   1.403       .  A
C1441      C1446   1.407       .  A
C1441      H1448   1.084       .  S
C1442      C1443   1.419       .  A
C1443      C1444   1.400       .  A
C1443      N1450   1.440       .  S
C1444      C1445   1.402       .  A
C1444      H1449   1.085       .  S
C1445      C1446   1.420       .  A
C1446      N1447   1.438       .  S
N1447      H1451   1.045       .  S
N1447      H1452   1.043       .  S
N1450      H1453   1.043       .  S
N1450      H1454   1.046       .  S
C1455      C1456   1.399       .  A
C1455      C1460   1.406   1_556  A
C1455      H1462   1.084       .  S
C1456      C1457   1.420       .  A
C1457      C1458   1.407       .  A
C1457      N1464   1.438       .  S
C1458      C1459   1.401   1_556  A
C1458      H1463   1.084       .  S
C1459      C1460   1.416       .  A
C1460      N1461   1.439       .  S
N1461      H1465   1.046       .  S
N1461      H1466   1.043       .  S
N1464      H1467   1.043       .  S
N1464      H1468   1.045       .  S
C1469      C1470   1.417       .  A
C1469      C1474   1.423       .  A
C1469      H1476   1.083       .  S
C1470      C1471   1.400       .  A
C1471      C1472   1.391       .  A
C1471      N1478   1.434       .  S
C1472      C1473   1.408       .  A
C1472      H1477   1.074       .  S
C1473      C1474   1.419       .  A
C1474      N1475   1.436       .  S
N1475      H1479   1.045       .  S
N1478      H1481   1.045       .  S
N1478      H1482   1.045       .  S
C1483      C1484   1.417       .  A
C1483      C1488   1.405       .  A
C1483      H1490   1.083       .  S
C1484      C1485   1.417       .  A
C1485      C1486   1.428       .  A
C1485      N1492   1.436       .  S
C1486      C1487   1.415       .  A
C1486      H1491   1.083       .  S
C1487      C1488   1.404       .  A
C1488      N1489   1.433       .  S
N1489      H1493   1.046       .  S
N1489      H1494   1.046       .  S
N1492      H1495   1.046       .  S
N1492      H1496   1.045       .  S
C1497      C1498   1.403       .  A
C1497      C1502   1.408       .  A
C1497      H1504   1.084       .  S
C1498      C1499   1.410       .  A
C1499      C1500   1.394       .  A
C1499      N1506   1.433       .  S
C1500      C1501   1.401       .  A
C1500      H1505   1.085       .  S
C1501      C1502   1.409       .  A
C1502      N1503   1.437       .  S
N1503      H1507   1.046       .  S
N1503      H1508   1.046       .  S
N1506      H1509   1.045       .  S
N1506      H1510   1.042       .  S
C1511      C1512   1.410       .  A
C1511      C1516   1.412       .  A
C1511      H1518   1.083       .  S
C1512      C1513   1.417       .  A
C1513      C1514   1.397       .  A
C1513      N1520   1.440       .  S
C1514      C1515   1.406       .  A
C1514      H1519   1.083       .  S
C1515      C1516   1.415       .  A
C1516      N1517   1.438       .  S
N1517      H1521   1.046       .  S
N1517      H1522   1.045       .  S
N1520      H1523   1.046       .  S
N1520      H1524   1.046       .  S
C1525      C1526   1.415       .  A
C1525      C1530   1.419       .  A
C1525      H1532   1.084       .  S
C1526      C1527   1.404       .  A
C1527      C1528   1.413       .  A
C1527      N1534   1.437       .  S
C1528      C1529   1.415       .  A
C1528      H1533   1.072       .  S
C1529      C1530   1.426       .  A
C1530      N1531   1.438       .  S
N1531      H1535   1.046       .  S
N1534      H1537   1.045       .  S
N1534      H1538   1.045       .  S
C1539      C1540   1.412       .  A
C1539      C1544   1.421       .  A
C1539      H1546   1.084       .  S
C1540      C1541   1.418       .  A
C1541      C1542   1.404       .  A
C1541      N1548   1.441       .  S
C1542      C1543   1.410       .  A
C1542      H1547   1.085       .  S
C1543      C1544   1.420       .  A
C1544      N1545   1.436       .  S
N1545      H1549   1.046       .  S
N1545      H1550   1.044       .  S
N1548      H1551   1.044       .  S
N1548      H1552   1.046       .  S
C1553      C1554   1.420       .  A
C1553      C1558   1.419       .  A
C1553      H1560   1.083       .  S
C1555      N1562   1.440       .  S
C1556      C1557   1.406       .  A
C1557      C1558   1.415       .  A
C1558      N1559   1.437       .  S
N1559      H1563   1.045       .  S
N1559      H1564   1.042       .  S
N1562      H1565   1.045       .  S
N1562      H1566   1.045       .  S
C1567      C1568   1.407       .  A
C1567      C1572   1.413       .  A
C1567      H1574   1.083       .  S
C1569      N1576   1.440       .  S
C1570      C1571   1.406       .  A
C1570      H1575   1.083       .  S
C1571      C1572   1.414   1_565  A
C1572      N1573   1.437       .  S
N1573      H1577   1.046       .  S
N1573      H1578   1.045       .  S
N1576      H1579   1.046       .  S
N1576      H1580   1.046       .  S
C1581      C1582   1.409       .  A
C1581      C1586   1.420       .  A
C1581      H1588   1.084       .  S
C1582      C1583   1.422       .  A
C1583      C1584   1.432       .  A
C1583      N1590   1.436       .  S
C1584      C1585   1.413       .  A
C1584      H1589   1.083       .  S
C1585      C1586   1.420       .  A
C1586      N1587   1.438       .  S
N1587      H1591   1.046       .  S
N1587      H1592   1.045       .  S
N1590      H1593   1.045       .  S
N1590      H1594   1.046       .  S
C1595      C1596   1.419       .  A
C1595      C1600   1.421       .  A
C1595      H1602   1.083       .  S
C1596      C1597   1.416       .  A
C1597      C1598   1.423       .  A
C1597      N1604   1.437   1_545  S
C1598      C1599   1.422       .  A
C1598      H1603   1.081       .  S
C1599      C1600   1.413       .  A
C1600      N1601   1.435       .  S
N1601      H1605   1.045       .  S
N1601      H1606   1.044       .  S
N1604      H1607   1.044       .  S
N1604      H1608   1.045       .  S
C1609      C1610   1.411       .  A
C1609      C1614   1.410       .  A
C1609      H1616   1.084       .  S
C1610      C1611   1.410       .  A
C1611      C1612   1.390       .  A
C1611      N1618   1.434       .  S
C1612      C1613   1.408       .  A
C1612      H1617   1.084       .  S
C1613      C1614   1.408       .  A
C1614      N1615   1.437       .  S
N1615      H1619   1.046       .  S
N1615      H1620   1.046       .  S
N1618      H1621   1.046       .  S
N1618      H1622   1.045       .  S
C1623      C1624   1.404       .  A
C1623      C1628   1.407       .  A
C1623      H1630   1.084       .  S
C1624      C1625   1.411       .  A
C1625      C1626   1.404       .  A
C1625      N1632   1.435       .  S
C1626      C1627   1.400       .  A
C1626      H1631   1.084       .  S
C1627      C1628   1.408       .  A
C1628      N1629   1.436       .  S
N1629      H1633   1.046       .  S
N1629      H1634   1.045       .  S
N1632      H1635   1.045       .  S
N1632      H1636   1.046       .  S
C1637      C1638   1.421       .  A
C1637      C1642   1.419       .  A
C1637      H1644   1.084       .  S
C1638      C1639   1.392       .  A
C1639      C1640   1.388       .  A
C1639      N1646   1.432       .  S
C1640      C1641   1.398       .  A
C1640      H1645   1.061   1_565  S
C1641      C1642   1.404       .  A
C1642      N1643   1.436       .  S
N1643      H1647   1.045       .  S
N1643      H1648   1.046       .  S
N1646      H1649   1.044       .  S
N1646      H1650   1.045       .  S
C1651      C1652   1.403       .  A
C1651      C1656   1.409       .  A
C1651      H1658   1.084   1_545  S
C1653      C1654   1.406       .  A
C1653      N1660   1.436       .  S
C1654      H1659   1.084       .  S
C1655      C1656   1.422       .  A
C1656      N1657   1.439       .  S
N1657      H1661   1.046       .  S
N1657      H1662   1.041       .  S
N1660      H1663   1.046       .  S
N1660      H1664   1.046       .  S
C1665      C1666   1.422       .  A
C1665      C1670   1.416       .  A
C1665      H1672   1.084       .  S
C1666      C1667   1.428       .  A
C1667      C1668   1.428       .  A
C1667      N1674   1.437   1_554  S
C1668      C1669   1.420       .  A
C1668      H1673   1.084   1_554  S
C1669      C1670   1.413       .  A
C1670      N1671   1.437       .  S
N1671      H1675   1.046       .  S
N1671      H1676   1.043       .  S
N1674      H1677   1.038       .  S
N1674      H1678   1.046       .  S
C1679      C1680   1.417       .  A
C1679      C1684   1.414       .  A
C1679      H1686   1.084       .  S
C1680      C1681   1.429       .  A
C1681      C1682   1.422       .  A
C1681      N1688   1.437       .  S
C1682      C1683   1.414       .  A
C1682      H1687   1.084       .  S
C1683      C1684   1.417       .  A
C1684      N1685   1.438   1_545  S
N1685      H1689   1.046   1_565  S
N1685      H1690   1.045       .  S
N1688      H1691   1.039       .  S
N1688      H1692   1.046       .  S
C1693      C1694   1.405   1_556  A
C1693      C1698   1.405       .  A
C1693      H1700   1.084       .  S
C1694      C1695   1.405   1_554  A
C1695      C1696   1.404       .  A
C1695      N1702   1.439   1_556  S
C1696      C1697   1.402       .  A
C1696      H1701   1.083       .  S
C1697      C1698   1.416       .  A
C1698      N1699   1.438       .  S
N1699      H1703   1.046       .  S
N1699      H1704   1.045       .  S
N1702      H1705   1.045       .  S
N1702      H1706   1.045   1_554  S
C1707      C1708   1.391       .  A
C1707      C1712   1.383       .  A
C1707      H1714   1.086       .  S
C1708      C1709   1.415       .  A
C1709      C1710   1.403       .  A
C1709      N1716   1.437       .  S
C1710      C1711   1.404       .  A
C1710      H1715   1.084       .  S
C1711      C1712   1.417       .  A
C1712      N1713   1.435       .  S
N1713      H1717   1.046       .  S
N1713      H1718   1.046       .  S
N1716      H1719   1.042       .  S
N1716      H1720   1.046       .  S
C1721      C1722   1.414       .  A
C1721      C1726   1.397       .  A
C1721      H1728   1.073       .  S
C1722      C1723   1.418       .  A
C1723      C1724   1.419       .  A
C1723      N1730   1.437   1_556  S
C1724      C1725   1.417       .  A
C1724      H1729   1.084   1_556  S
C1725      C1726   1.400       .  A
C1726      N1727   1.440       .  S
N1727      H1731   1.046       .  S
N1727      H1732   1.046       .  S
N1730      H1733   1.041       .  S
N1730      H1734   1.046       .  S
C1735      C1736   1.411       .  A
C1735      C1740   1.409       .  A
C1735      H1742   1.083   1_556  S
C1736      C1737   1.405       .  A
C1737      C1738   1.396       .  A
C1737      N1744   1.434       .  S
C1738      C1739   1.415       .  A
C1738      H1743   1.083       .  S
C1739      C1740   1.414       .  A
C1740      N1741   1.431   1_556  S
N1741      H1745   1.045   1_554  S
N1741      H1746   1.045       .  S
N1744      H1747   1.045       .  S
N1744      H1748   1.045       .  S
C1749      C1750   1.408       .  A
C1749      C1754   1.399       .  A
C1749      H1756   1.084       .  S
C1750      C1751   1.419       .  A
C1751      C1752   1.396       .  A
C1751      N1758   1.442       .  S
C1752      C1753   1.403       .  A
C1752      H1757   1.085       .  S
C1753      C1754   1.401       .  A
C1754      N1755   1.437       .  S
N1755      H1759   1.046       .  S
N1755      H1760   1.045       .  S
N1758      H1761   1.040       .  S
N1758      H1762   1.046       .  S
C1763      C1764   1.404       .  A
C1763      C1768   1.388       .  A
C1763      H1770   1.085       .  S
C1764      C1765   1.409       .  A
C1765      C1766   1.387       .  A
C1765      N1772   1.433       .  S
C1766      C1767   1.405   1_565  A
C1766      H1771   1.085   1_565  S
C1767      C1768   1.408   1_545  A
C1768      N1769   1.431       .  S
N1769      H1773   1.043       .  S
N1769      H1774   1.045   1_565  S
N1772      H1775   1.045       .  S
N1772      H1776   1.045       .  S
C1777      C1778   1.402       .  A
C1777      C1782   1.401       .  A
C1777      H1784   1.083       .  S
C1778      C1779   1.414       .  A
C1779      C1780   1.413       .  A
C1779      N1786   1.432       .  S
C1780      C1781   1.408       .  A
C1780      H1785   1.084       .  S
C1781      C1782   1.417       .  A
C1782      N1783   1.436       .  S
N1783      H1787   1.043       .  S
N1783      H1788   1.046       .  S
N1786      H1789   1.045       .  S
N1786      H1790   1.046       .  S
C1791      C1792   1.402       .  A
C1791      C1796   1.401       .  A
C1791      H1798   1.084       .  S
C1792      C1793   1.409       .  A
C1793      C1794   1.405       .  A
C1793      N1800   1.438       .  S
C1794      C1795   1.410       .  A
C1794      H1799   1.083       .  S
C1795      C1796   1.418       .  A
C1796      N1797   1.437       .  S
N1797      H1801   1.046       .  S
N1797      H1802   1.045       .  S
N1800      H1803   1.046       .  S
N1800      H1804   1.046       .  S
C1805      C1806   1.399       .  A
C1805      C1810   1.401       .  A
C1805      H1812   1.086       .  S
C1806      C1807   1.413       .  A
C1807      C1808   1.404       .  A
C1807      N1814   1.435       .  S
C1808      C1809   1.403       .  A
C1808      H1813   1.084       .  S
C1809      C1810   1.411       .  A
C1810      N1811   1.437       .  S
N1811      H1815   1.046       .  S
N1811      H1816   1.038       .  S
N1814      H1817   1.045       .  S
N1814      H1818   1.046       .  S
C1819      C1820   1.400       .  A
C1819      C1824   1.400       .  A
C1819      H1826   1.084       .  S
C1820      C1821   1.417       .  A
C1821      C1822   1.407       .  A
C1821      N1828   1.438       .  S
C1822      C1823   1.400       .  A
C1822      H1827   1.084       .  S
C1823      C1824   1.418       .  A
C1824      N1825   1.438       .  S
N1825      H1829   1.045       .  S
N1825      H1830   1.042       .  S
N1828      H1831   1.046       .  S
N1828      H1832   1.046       .  S
C1833      C1834   1.400       .  A
C1833      C1838   1.392       .  A
C1833      H1840   1.084       .  S
C1834      C1835   1.405       .  A
C1835      C1836   1.398       .  A
C1835      N1842   1.438       .  S
C1836      C1837   1.406       .  A
C1836      H1841   1.084       .  S
C1837      C1838   1.414       .  A
C1838      N1839   1.439       .  S
N1839      H1843   1.046       .  S
N1839      H1844   1.046       .  S
N1842      H1845   1.046       .  S
N1842      H1846   1.046       .  S
C1847      C1848   1.400       .  A
C1847      C1852   1.394       .  A
C1847      H1854   1.085       .  S
C1848      C1849   1.412       .  A
C1849      C1850   1.390       .  A
C1849      N1856   1.439       .  S
C1850      C1851   1.397       .  A
C1850      H1855   1.085       .  S
C1851      C1852   1.403       .  A
C1852      N1853   1.438       .  S
N1853      H1857   1.046       .  S
N1853      H1858   1.045       .  S
N1856      H1859   1.043       .  S
N1856      H1860   1.046       .  S
C1861      C1862   1.412       .  A
C1861      C1866   1.389       .  A
C1861      H1868   1.083       .  S
C1862      C1863   1.409       .  A
C1863      C1864   1.401       .  A
C1863      N1870   1.438       .  S
C1864      C1865   1.406       .  A
C1864      H1869   1.078       .  S
C1865      C1866   1.403       .  A
C1866      N1867   1.437       .  S
N1867      H1871   1.046       .  S
N1867      H1872   1.045       .  S
N1870      H1873   1.046       .  S
N1870      H1874   1.046       .  S
C1875      C1876   1.400       .  A
C1875      C1880   1.400       .  A
C1875      H1882   1.084       .  S
C1876      C1877   1.403       .  A
C1877      C1878   1.393       .  A
C1877      N1884   1.439       .  S
C1878      C1879   1.399       .  A
C1878      H1883   1.084       .  S
C1879      C1880   1.404       .  A
C1880      N1881   1.437       .  S
N1881      H1885   1.046       .  S
N1881      H1886   1.045   1_565  S
N1884      H1887   1.046       .  S
N1884      H1888   1.046       .  S
