geometry optimzed in LAMMPS
_audit_creation_date              2020-11-30 
_audit_creation_method            'lammps2cif' 
_symmetry_space_group_name_H-M    'P1' 
_symmetry_Int_Tables_number       1 
_symmetry_cell_setting            triclinic 
loop_ 
_symmetry_equiv_pos_as_xyz 
  x,y,z 
_cell_length_a                    51.17754262 
_cell_length_b                    51.31044995960011 
_cell_length_c                    51.37542497461651 
_cell_angle_alpha                 89.95829569029476 
_cell_angle_beta                  89.97038550225464 
_cell_angle_gamma                 89.97780564488109 
loop_ 
_atom_site_label 
_atom_site_type_symbol 
_atom_site_fract_x 
_atom_site_fract_y 
_atom_site_fract_z 
_atom_site_charge 
N1          N  0.75988333  0.91316741  0.40950761    -0.00400
C2          C  0.74831288  0.91500510  0.38569643     0.02200
C3          C  0.75049472  0.89144370  0.37269214    -0.20700
C4          C  0.76363511  0.87471514  0.38890133    -0.20900
C5          C  0.76919660  0.88848089  0.41136359     0.02100
H6          H  0.74290627  0.88663016  0.35363836     0.15900
H7          H  0.76848138  0.85461588  0.38472699     0.15900
N8          N  0.74901651  0.91069526  0.58087811    -0.00400
C9          C  0.73787661  0.91335294  0.60472296     0.02200
C10         C  0.74107875  0.89068469  0.61898532    -0.20700
C11         C  0.75492948  0.87372758  0.60361450    -0.20900
C12         C  0.75987670  0.88657056  0.58040685     0.02100
H13         H  0.73453007  0.88702801  0.63868605     0.15900
H14         H  0.76138137  0.85444016  0.60921504     0.15900
N15         N  0.74334625  0.09060118  0.40963082    -0.00400
C16         C  0.75667556  0.11342926  0.41146861     0.02200
C17         C  0.75795171  0.12516492  0.38718850    -0.20700
C18         C  0.74529383  0.10893249  0.37002187    -0.20900
C19         C  0.73649084  0.08782658  0.38433080     0.02100
H20         H  0.76749765  0.14333837  0.38230106     0.15900
H21         H  0.74287573  0.11222666  0.34935571     0.15900
N22         N  0.75223430  0.08977247  0.58382936    -0.00400
C23         C  0.73923696  0.08743224  0.60677322     0.02200
C24         C  0.73875288  0.11118943  0.61952320    -0.20700
C25         C  0.75170580  0.12865113  0.60389595    -0.20900
C26         C  0.75982214  0.11501464  0.58209632     0.02100
H27         H  0.72967825  0.11549728  0.63805959     0.15900
H28         H  0.75485082  0.14907155  0.60809318     0.15900
O29         O  0.71893581  0.02966722  0.52197785    -0.69800
O30         O  0.72124585  0.97669710  0.46550763    -0.70800
O31         O  0.71510622  0.97459303  0.52052736    -0.59400
O32         O  0.72668573  0.03199446  0.46738374    -0.67900
O33         O  0.76950099  0.02770942  0.47277213    -0.67400
O34         O  0.75808135  0.97149276  0.52522935    -0.58700
O35         O  0.76414032  0.97230359  0.47005092    -0.71200
O36         O  0.76187504  0.02702818  0.52748289    -0.69900
Cu37       Cu  0.71902567  0.00334995  0.49362706     1.04600
Cu38       Cu  0.76491688  0.99947125  0.49904899     1.04300
C39         C  0.73967654  0.03690616  0.53357442     0.96400
C40         C  0.74267699  0.96596314  0.45884253     0.95500
C41         C  0.73506411  0.96413727  0.53134453     0.87600
C42         C  0.75012864  0.03898075  0.46201606     0.93900
N43         N  0.91224073  0.74562352  0.40778366    -0.00400
C44         C  0.91320725  0.73697023  0.38293637     0.02200
C45         C  0.89170010  0.74591497  0.36921689    -0.20700
C46         C  0.87695245  0.76026726  0.38638671    -0.20900
C47         C  0.88999849  0.75978819  0.40998011     0.02100
H48         H  0.88699390  0.74220148  0.34902781     0.15900
H49         H  0.85865071  0.76993510  0.38211119     0.15900
N50         N  0.91362524  0.74564935  0.58669095    -0.00400
C51         C  0.91515630  0.73714322  0.61161525     0.02200
C52         C  0.89327170  0.74506272  0.62538433    -0.20700
C53         C  0.87769440  0.75851964  0.60817954    -0.20900
C54         C  0.89061494  0.75858728  0.58450667     0.02100
H55         H  0.88875010  0.74109394  0.64557353     0.15900
H56         H  0.85893723  0.76725522  0.61249524     0.15900
N57         N  0.08857031  0.74122209  0.40966583    -0.00400
C58         C  0.08596074  0.72844187  0.38664304     0.02200
C59         C  0.10962457  0.72829368  0.37354489    -0.20700
C60         C  0.12719028  0.74148998  0.38884974    -0.20900
C61         C  0.11372953  0.74944347  0.41084002     0.02100
H62         H  0.11364961  0.71978432  0.35469416     0.15900
H63         H  0.14740884  0.74535514  0.38404423     0.15900
N64         N  0.08942320  0.74300916  0.58192550    -0.00400
C65         C  0.08703676  0.73083275  0.60531355     0.02200
C66         C  0.11082504  0.73105365  0.61814344    -0.20700
C67         C  0.12824284  0.74381932  0.60224353    -0.20900
C68         C  0.11457200  0.75118657  0.58017940     0.02100
H69         H  0.11509283  0.72288986  0.63710006     0.15900
H70         H  0.14853600  0.74771551  0.60666121     0.15900
O71         O  0.96701333  0.73007012  0.52440020    -0.69800
O72         O  0.02040159  0.71550493  0.46879278    -0.70800
O73         O  0.02067373  0.71588566  0.52425368    -0.59400
O74         O  0.96673561  0.72981293  0.46904921    -0.67900
O75         O  0.97750786  0.77171884  0.46897752    -0.67400
O76         O  0.03156316  0.75774363  0.52380029    -0.58700
O77         O  0.03121217  0.75737763  0.46831106    -0.71200
O78         O  0.97786002  0.77194696  0.52405971    -0.69900
Cu79       Cu  0.99332921  0.72135504  0.49663012     1.04600
Cu80       Cu  0.00496513  0.76613719  0.49627051     1.04300
C81         C  0.96397478  0.75327441  0.53295482     0.96400
C82         C  0.03415429  0.73417273  0.45968744     0.95500
C83         C  0.03456201  0.73469961  0.53280576     0.87600
C84         C  0.96353599  0.75298914  0.46043712     0.93900
N85         N  0.24558497  0.90438102  0.40389745    -0.00400
C86         C  0.25901726  0.90683748  0.38122784     0.02200
C87         C  0.26092484  0.88278349  0.36913503    -0.20700
C88         C  0.24844575  0.86508545  0.38496092    -0.20900
C89         C  0.23912613  0.87889367  0.40616213     0.02100
H90         H  0.27071234  0.87841651  0.35097676     0.15900
H91         H  0.24637843  0.84443013  0.38127040     0.15900
N92         N  0.25358275  0.90394694  0.58182858    -0.00400
C93         C  0.26134223  0.90604385  0.60697679     0.02200
C94         C  0.25455360  0.88378844  0.62065171    -0.20700
C95         C  0.24234159  0.86747026  0.60332404    -0.20900
C96         C  0.24188769  0.88024432  0.57957500     0.02100
H97         H  0.25823389  0.87966249  0.64097753     0.15900
H98         H  0.23439459  0.84842803  0.60772375     0.15900
N99         N  0.25299829  0.08218440  0.40898403    -0.00400
C100        C  0.23651503  0.10287083  0.41077829     0.02200
C101        C  0.23291457  0.11400089  0.38654741    -0.20700
C102        C  0.24740534  0.09946736  0.36924559    -0.20900
C103        C  0.25934901  0.07981541  0.38347724     0.02100
H104        H  0.22122555  0.13097443  0.38197021     0.15900
H105        H  0.24880222  0.10284916  0.34850562     0.15900
N106        N  0.24176044  0.07337761  0.58544875    -0.00400
C107        C  0.22596187  0.09440492  0.58295792     0.02200
C108        C  0.22335280  0.10685257  0.60662988    -0.20700
C109        C  0.23827978  0.09302812  0.62420844    -0.20900
C110        C  0.24956462  0.07251518  0.61063567     0.02100
H111        H  0.21302118  0.12486971  0.61038524     0.15900
H112        H  0.24116350  0.09808642  0.64443501     0.15900
O113        O  0.26945892  0.96799518  0.46722932    -0.69800
O114        O  0.25588426  0.01880911  0.52441828    -0.70800
O115        O  0.26170270  0.96371387  0.52229235    -0.59400
O116        O  0.26204978  0.02304196  0.46957317    -0.67900
O117        O  0.21929788  0.01743131  0.46479546    -0.67400
O118        O  0.21901032  0.95950949  0.51595612    -0.58700
O119        O  0.21308569  0.01430521  0.51901186    -0.71200
O120        O  0.22684439  0.96268463  0.46123096    -0.69900
Cu121      Cu  0.26382438  0.99349625  0.49605772     1.04600
Cu122      Cu  0.21812458  0.98824394  0.49001991     1.04300
C123        C  0.25052852  0.95736109  0.45512548     0.96400
C124        C  0.23251220  0.02483410  0.53060577     0.90700
C125        C  0.23987505  0.95262183  0.52756749     0.87600
C126        C  0.24021255  0.02966337  0.45928783     0.93900
N127        N  0.41318795  0.90468545  0.24679374    -0.00400
C128        C  0.41489975  0.87986086  0.23797835     0.02200
C129        C  0.39276580  0.86605903  0.24510222    -0.20700
C130        C  0.37688888  0.88315458  0.25841812    -0.20900
C131        C  0.38989264  0.90680239  0.25924390     0.02100
H132        H  0.38831947  0.84592079  0.24072149     0.15900
H133        H  0.35789472  0.87877255  0.26658657     0.15900
N134        N  0.58966311  0.90957062  0.24860533    -0.00400
C135        C  0.58749041  0.88634244  0.23604225     0.02200
C136        C  0.61129097  0.87349943  0.23639837    -0.20700
C137        C  0.62850509  0.88919875  0.24963281    -0.20900
C138        C  0.61471238  0.91116956  0.25714238     0.02100
H139        H  0.61569343  0.85465439  0.22801841     0.15900
H140        H  0.64874750  0.88470980  0.25373648     0.15900
N141        N  0.41241548  0.08452044  0.24958874    -0.00400
C142        C  0.41386047  0.10940777  0.24090603     0.02200
C143        C  0.39198294  0.12322264  0.24877006    -0.20700
C144        C  0.37649535  0.10608272  0.26240826    -0.20900
C145        C  0.38945395  0.08239452  0.26260658     0.02100
H146        H  0.38739479  0.14338210  0.24459806     0.15900
H147        H  0.35767903  0.11039801  0.27101116     0.15900
N148        N  0.58614573  0.08368627  0.25232649    -0.00400
C149        C  0.58384337  0.10708153  0.24005544     0.02200
C150        C  0.60752337  0.12015564  0.24085162    -0.20700
C151        C  0.62475004  0.10444250  0.25400763    -0.20900
C152        C  0.61113140  0.08220999  0.26096223     0.02100
H153        H  0.61197805  0.13903280  0.23256699     0.15900
H154        H  0.64497901  0.10893094  0.25816186     0.15900
O155        O  0.46724632  0.96709345  0.23383718    -0.69800
O156        O  0.52056418  0.02359575  0.22262039    -0.70800
O157        O  0.52138210  0.96799440  0.22150448    -0.59400
O158        O  0.46652113  0.02251660  0.23485702    -0.67900
O159        O  0.47579856  0.02162318  0.27704954    -0.67400
O160        O  0.53090233  0.96727541  0.26362938    -0.58700
O161        O  0.52994586  0.02300799  0.26477937    -0.71200
O162        O  0.47668414  0.96649292  0.27600056    -0.69900
Cu163      Cu  0.49362009  0.99530856  0.22673575     1.04600
Cu164      Cu  0.50372195  0.99455651  0.27182115     1.04300
C165        C  0.46345304  0.95802247  0.25672509     0.96400
C166        C  0.53345622  0.03242702  0.24197917     0.95500
C167        C  0.53470374  0.95891930  0.24047616     0.87600
C168        C  0.46249531  0.03063531  0.25804290     0.93900
N169        N  0.41965546  0.74733750  0.90952638    -0.00400
C170        C  0.42175477  0.75999824  0.88634529     0.02200
C171        C  0.39799540  0.75947448  0.87347008    -0.20700
C172        C  0.38089099  0.74598454  0.88903820    -0.20900
C173        C  0.39469207  0.73854853  0.91099382     0.02100
H174        H  0.39359821  0.76777711  0.85460232     0.15900
H175        H  0.36073810  0.74160627  0.88443561     0.15900
N176        N  0.59564398  0.75410383  0.90705072    -0.00400
C177        C  0.59429983  0.76264594  0.88215142     0.02200
C178        C  0.61683416  0.75591004  0.86883556    -0.20700
C179        C  0.63258334  0.74300273  0.88627188    -0.20900
C180        C  0.61911426  0.74210454  0.90964500     0.02100
H181        H  0.62146255  0.76002732  0.84869541     0.15900
H182        H  0.65170265  0.73495189  0.88221603     0.15900
N183        N  0.41852388  0.74462616  0.08185407    -0.00400
C184        C  0.42041404  0.75628304  0.10555552     0.02200
C185        C  0.39669055  0.75474397  0.11843054    -0.20700
C186        C  0.37982623  0.74161042  0.10232000    -0.20900
C187        C  0.39374146  0.73536461  0.08005331     0.02100
H188        H  0.39211675  0.76223903  0.13758522     0.15900
H189        H  0.35975578  0.73668421  0.10675288     0.15900
N190        N  0.59676335  0.75409427  0.08457344    -0.00400
C191        C  0.59452287  0.76266478  0.10941682     0.02200
C192        C  0.61689095  0.75648977  0.12326768    -0.20700
C193        C  0.63344197  0.74396530  0.10622947    -0.20900
C194        C  0.62063526  0.74268905  0.08251089     0.02100
H195        H  0.62090301  0.76075258  0.14349885     0.15900
H196        H  0.65260787  0.73633514  0.11082897     0.15900
O197        O  0.53250010  0.72342032  0.96864163    -0.69800
O198        O  0.47790291  0.73354256  0.02400205    -0.70800
O199        O  0.47790310  0.73409751  0.96836820    -0.59400
O200        O  0.53270558  0.72310440  0.02378001    -0.67900
O201        O  0.54063400  0.76561736  0.02396366    -0.67400
O202        O  0.48594705  0.77658257  0.96888748    -0.58700
O203        O  0.48595238  0.77602370  0.02441227    -0.71200
O204        O  0.54038304  0.76595720  0.96864244    -0.69900
Cu205      Cu  0.50491791  0.72706681  0.99620977     1.04600
Cu206      Cu  0.51348828  0.77251757  0.99650872     1.04300
C207        C  0.54506333  0.74307221  0.95994462     0.96400
C208        C  0.47333697  0.75632251  0.03301138     0.95500
C209        C  0.47347476  0.75708945  0.95973638     0.87600
C210        C  0.54547620  0.74267090  0.03240819     0.93900
N211        N  0.41391860  0.90304949  0.74070361    -0.00400
C212        C  0.41654725  0.87975151  0.75296938     0.02200
C213        C  0.39317569  0.86616772  0.75189650    -0.20700
C214        C  0.37576577  0.88159614  0.73854248    -0.20900
C215        C  0.38906151  0.90409122  0.73174166     0.02100
H216        H  0.38908385  0.84716183  0.76008065     0.15900
H217        H  0.35566462  0.87676287  0.73415618     0.15900
N218        N  0.59132443  0.90708689  0.73852712    -0.00400
C219        C  0.58961204  0.88336876  0.75007309     0.02200
C220        C  0.61348388  0.87071006  0.74856830    -0.20700
C221        C  0.63031684  0.88727274  0.73577951    -0.20900
C222        C  0.61612257  0.90942222  0.72967906     0.02100
H223        H  0.61829293  0.85164508  0.75621399     0.15900
H224        H  0.65060965  0.88342051  0.73126520     0.15900
N225        N  0.41166279  0.08014552  0.74765025    -0.00400
C226        C  0.41255802  0.10512555  0.75633545     0.02200
C227        C  0.38978508  0.11809505  0.74972021    -0.20700
C228        C  0.37432292  0.10048406  0.73679592    -0.20900
C229        C  0.38806378  0.07723863  0.73577269     0.02100
H230        H  0.38465836  0.13806708  0.75414003     0.15900
H231        H  0.35506185  0.10429986  0.72898522     0.15900
N232        N  0.58591006  0.08375791  0.74480550    -0.00400
C233        C  0.58315234  0.10888468  0.75252208     0.02200
C234        C  0.60442830  0.12344888  0.74438331    -0.20700
C235        C  0.62092070  0.10663890  0.73160192    -0.20900
C236        C  0.60922027  0.08231545  0.73216129     0.02100
H237        H  0.60796783  0.14395100  0.74779022     0.15900
H238        H  0.63949770  0.11167362  0.72287136     0.15900
O239        O  0.52920077  0.96960005  0.76996859    -0.69800
O240        O  0.47234059  0.02318734  0.75997694    -0.70800
O241        O  0.47381504  0.96850312  0.77064400    -0.59400
O242        O  0.52840043  0.02418327  0.75923228    -0.67900
O243        O  0.52771558  0.01593266  0.71685386    -0.67400
O244        O  0.47349874  0.96033625  0.72823774    -0.58700
O245        O  0.47197076  0.01475170  0.71763446    -0.71200
O246        O  0.52896044  0.96160393  0.72752390    -0.69900
Cu247      Cu  0.50094444  0.99671903  0.76644332     1.04600
Cu248      Cu  0.50051795  0.98791538  0.72111199     1.04300
C249        C  0.53791011  0.95706696  0.75031868     0.96400
C250        C  0.46304518  0.02726197  0.73720612     0.95500
C251        C  0.46526030  0.95548960  0.75123885     0.87600
C252        C  0.53681444  0.02865394  0.73618724     0.93900
N253        N  0.40922589  0.23845146  0.91159299    -0.00400
C254        C  0.38566571  0.25045366  0.91406000     0.02200
C255        C  0.37250644  0.24974305  0.89050684    -0.20700
C256        C  0.38843829  0.23696147  0.87314668    -0.20900
C257        C  0.41080063  0.23007213  0.88663599     0.02100
H258        H  0.35347644  0.25789781  0.88625313     0.15900
H259        H  0.38403932  0.23299773  0.85293360     0.15900
N260        N  0.58518737  0.24092349  0.90989642    -0.00400
C261        C  0.60855797  0.25339262  0.91219790     0.02200
C262        C  0.62177624  0.25256659  0.88866342    -0.20700
C263        C  0.60617226  0.23926462  0.87147925    -0.20900
C264        C  0.58386380  0.23223891  0.88498224     0.02100
H265        H  0.64067705  0.26095239  0.88429730     0.15900
H266        H  0.61076862  0.23505688  0.85135491     0.15900
N267        N  0.40917246  0.24393675  0.08630124    -0.00400
C268        C  0.41145370  0.23135296  0.10941146     0.02200
C269        C  0.38799482  0.23253980  0.12280411    -0.20700
C270        C  0.37085297  0.24629147  0.10738832    -0.20900
C271        C  0.38444234  0.25326075  0.08512470     0.02100
H272        H  0.38379320  0.22439263  0.14178594     0.15900
H273        H  0.35082356  0.25102943  0.11220368     0.15900
N274        N  0.58750561  0.24433842  0.08475723    -0.00400
C275        C  0.58626224  0.23111356  0.10760314     0.02200
C276        C  0.61024465  0.23214096  0.12002530    -0.20700
C277        C  0.62659968  0.24650302  0.10432974    -0.20900
C278        C  0.61206759  0.25396374  0.08282451     0.02100
H279        H  0.61529975  0.22356787  0.13860613     0.15900
H280        H  0.64673253  0.25133724  0.10854175     0.15900
O281        O  0.52539257  0.25697119  0.03053790    -0.69800
O282        O  0.46946894  0.26831769  0.97678092    -0.70800
O283        O  0.46999092  0.25669420  0.03076471    -0.59400
O284        O  0.52525173  0.26877356  0.97650333    -0.67900
O285        O  0.52578889  0.22649126  0.96752024    -0.67400
O286        O  0.47020656  0.21435801  0.02193625    -0.58700
O287        O  0.46977159  0.22602611  0.96779017    -0.71200
O288        O  0.52551119  0.21462375  0.02174034    -0.69900
Cu289      Cu  0.49752209  0.26414964  0.00391716     1.04600
Cu290      Cu  0.49783306  0.21889959  0.99435896     1.04300
C291        C  0.53410972  0.23399095  0.03475213     0.96400
C292        C  0.46056908  0.24890283  0.96402114     0.95500
C293        C  0.46150147  0.23365589  0.03503319     0.87600
C294        C  0.53444487  0.24957476  0.96360809     0.93900
N295        N  0.25181490  0.40521440  0.90816027    -0.00400
C296        C  0.23832398  0.40727937  0.88552636     0.02200
C297        C  0.23806506  0.38344483  0.87288814    -0.20700
C298        C  0.25178948  0.36629659  0.88828883    -0.20900
C299        C  0.26016894  0.38021987  0.90980594     0.02100
H300        H  0.22886015  0.37894644  0.85447223     0.15900
H301        H  0.25542348  0.34596647  0.88402568     0.15900
N302        N  0.25828342  0.58261060  0.90469731    -0.00400
C303        C  0.24528791  0.58068246  0.88173217     0.02200
C304        C  0.24644213  0.60428295  0.86865892    -0.20700
C305        C  0.26047082  0.62111917  0.88413824    -0.20900
C306        C  0.26765140  0.60726174  0.90614271     0.02100
H307        H  0.23778778  0.60892420  0.85000894     0.15900
H308        H  0.26502088  0.64122149  0.87966118     0.15900
N309        N  0.25059524  0.41031656  0.08421492    -0.00400
C310        C  0.24266222  0.41253351  0.10933978     0.02200
C311        C  0.24960153  0.39044343  0.12318752    -0.20700
C312        C  0.26189490  0.37403311  0.10595870    -0.20900
C313        C  0.26226543  0.38657901  0.08208075     0.02100
H314        H  0.24574157  0.38638010  0.14349734     0.15900
H315        H  0.26971614  0.35495163  0.11043347     0.15900
N316        N  0.25732781  0.58160419  0.08300673    -0.00400
C317        C  0.24870095  0.58073730  0.10798929     0.02200
C318        C  0.25762709  0.60235101  0.12149170    -0.20700
C319        C  0.27178188  0.61707317  0.10415663    -0.20900
C320        C  0.27124027  0.60404593  0.08059210     0.02100
H321        H  0.25377023  0.60739614  0.14157065     0.15900
H322        H  0.28111043  0.63555541  0.10821973     0.15900
O323        O  0.24035146  0.52414589  0.02472045    -0.69800
O324        O  0.22581490  0.46874907  0.97128566    -0.70800
O325        O  0.23814836  0.46857864  0.02534427    -0.59400
O326        O  0.22798130  0.52385887  0.97059078    -0.67900
O327        O  0.27022600  0.52206476  0.96096880    -0.67400
O328        O  0.28043249  0.46703493  0.01589468    -0.58700
O329        O  0.26812295  0.46676562  0.96195924    -0.71200
O330        O  0.28257278  0.52249070  0.01500070    -0.69900
Cu331      Cu  0.23161129  0.49641209  0.99835522     1.04600
Cu332      Cu  0.27681265  0.49454178  0.98814518     1.04300
C333        C  0.26376942  0.53208209  0.02825891     0.96400
C334        C  0.24466438  0.45909087  0.95815945     0.95500
C335        C  0.26091177  0.45900715  0.02917004     0.87600
C336        C  0.24742904  0.53148093  0.95698974     0.93900
N337        N  0.91111284  0.41147859  0.74031506    -0.00400
C338        C  0.88716040  0.41365997  0.75165237     0.02200
C339        C  0.87390512  0.39018838  0.74956866    -0.20700
C340        C  0.89014081  0.37319994  0.73676317    -0.20900
C341        C  0.91285843  0.38673061  0.73130401     0.02100
H342        H  0.85465880  0.38560227  0.75699344     0.15900
H343        H  0.88581016  0.35310279  0.73207652     0.15900
N344        N  0.91318652  0.58435186  0.75090189    -0.00400
C345        C  0.88760168  0.58290077  0.75761859     0.02200
C346        C  0.87425299  0.60436721  0.74809112    -0.20700
C347        C  0.89228775  0.61953111  0.73528457    -0.20900
C348        C  0.91607498  0.60682868  0.73719060     0.02100
H349        H  0.85369009  0.60874252  0.75031776     0.15900
H350        H  0.88839202  0.63776801  0.72542292     0.15900
N351        N  0.08586154  0.40470686  0.75247945    -0.00400
C352        C  0.10971240  0.40710264  0.76384144     0.02200
C353        C  0.12300015  0.38362225  0.76233850    -0.20700
C354        C  0.10695360  0.36643643  0.74946466    -0.20900
C355        C  0.08436513  0.37994653  0.74331947     0.02100
H356        H  0.14243372  0.37946401  0.76952508     0.15900
H357        H  0.11169164  0.34650769  0.74445773     0.15900
N358        N  0.09203562  0.58073785  0.73914036    -0.00400
C359        C  0.11536135  0.57891953  0.75164491     0.02200
C360        C  0.12875178  0.60229937  0.74950631    -0.20700
C361        C  0.11313534  0.61891990  0.73546411    -0.20900
C362        C  0.09067610  0.60521925  0.72935247     0.02100
H363        H  0.14762821  0.60705913  0.75770000     0.15900
H364        H  0.11764520  0.63892010  0.73050801     0.15900
O365        O  0.02973850  0.46499894  0.74052066    -0.69800
O366        O  0.97824880  0.52206066  0.72740565    -0.70800
O367        O  0.03332936  0.52004859  0.73435897    -0.59400
O368        O  0.97416339  0.46730039  0.73492390    -0.67900
O369        O  0.97014247  0.47317253  0.77753280    -0.67400
O370        O  0.02820236  0.52491694  0.77698705    -0.58700
O371        O  0.97300766  0.52788860  0.76989519    -0.71200
O372        O  0.02551601  0.47014839  0.78318456    -0.69900
Cu373      Cu  0.00402995  0.49337441  0.73280263     1.04600
Cu374      Cu  0.99904395  0.49921444  0.77836357     1.04300
C375        C  0.03607586  0.45867975  0.76371536     0.96400
C376        C  0.96740934  0.53392196  0.74633410     0.95500
C377        C  0.03997646  0.53071652  0.75591209     0.87600
C378        C  0.96277415  0.46216992  0.75656398     0.93900
N379        N  0.74815513  0.40873221  0.90673071    -0.00400
C380        C  0.75683104  0.41049910  0.88184483     0.02200
C381        C  0.74894797  0.38880630  0.86788210    -0.20700
C382        C  0.73509274  0.37326744  0.88477666    -0.20900
C383        C  0.73476861  0.38592170  0.90857249     0.02100
H384        H  0.75290782  0.38454411  0.84764069     0.15900
H385        H  0.72604444  0.35480692  0.88006292     0.15900
N386        N  0.74322724  0.58525440  0.90517231    -0.00400
C387        C  0.75682286  0.58224334  0.88261156     0.02200
C388        C  0.75975727  0.60618153  0.87046389    -0.20700
C389        C  0.74779088  0.62436573  0.88602116    -0.20900
C390        C  0.73779711  0.61104662  0.90724258     0.02100
H391        H  0.76997154  0.61017088  0.85244921     0.15900
H392        H  0.74665189  0.64506943  0.88218084     0.15900
N393        N  0.74097637  0.41241801  0.08450219    -0.00400
C394        C  0.75136174  0.41322030  0.10879028     0.02200
C395        C  0.74485175  0.39078680  0.12234557    -0.20700
C396        C  0.73054992  0.37552545  0.10564075    -0.20900
C397        C  0.72860268  0.38910920  0.08243148     0.02100
H398        H  0.75066211  0.38550982  0.14189817     0.15900
H399        H  0.72300456  0.35625732  0.10977144     0.15900
N400        N  0.75752437  0.58548566  0.07926716    -0.00400
C401        C  0.76644184  0.58307463  0.10398484     0.02200
C402        C  0.76161949  0.60569991  0.11780557    -0.20700
C403        C  0.74940496  0.62258251  0.10100034    -0.20900
C404        C  0.74699233  0.60977470  0.07738154     0.02100
H405        H  0.76647751  0.60961025  0.13792306     0.15900
H406        H  0.74263681  0.64198966  0.10574302     0.15900
O407        O  0.71709357  0.52873859  0.01772788    -0.69800
O408        O  0.71428230  0.47185449  0.96519892    -0.70800
O409        O  0.70988321  0.47360757  0.02007149    -0.59400
O410        O  0.72308550  0.52662958  0.96269681    -0.67900
O411        O  0.76567412  0.51997060  0.96738958    -0.67400
O412        O  0.75269876  0.46808276  0.02391007    -0.58700
O413        O  0.75702180  0.46531388  0.96872631    -0.71200
O414        O  0.75986660  0.52333992  0.02238281    -0.69900
Cu415      Cu  0.71460859  0.50043659  0.99130282     1.04600
Cu416      Cu  0.76031342  0.49397421  0.99578540     1.04300
C417        C  0.73864315  0.53525223  0.02826900     0.96400
C418        C  0.73487544  0.45959047  0.95859564     0.95500
C419        C  0.72944143  0.46233256  0.03080840     0.87600
C420        C  0.74675457  0.53145847  0.95605813     0.93900
N421        N  0.91419750  0.40949095  0.24498862    -0.00400
C422        C  0.91611298  0.38539394  0.25569363     0.02200
C423        C  0.89344763  0.37141152  0.25111397    -0.20700
C424        C  0.87697482  0.38756876  0.23747166    -0.20900
C425        C  0.89008392  0.41092185  0.23397099     0.02100
H426        H  0.88910484  0.35173848  0.25735891     0.15900
H427        H  0.85751909  0.38270967  0.23081631     0.15900
N428        N  0.91450171  0.58650840  0.23736387    -0.00400
C429        C  0.89102074  0.58429302  0.22525660     0.02200
C430        C  0.87728312  0.60744079  0.22746399    -0.20700
C431        C  0.89271895  0.62426934  0.24148544    -0.20900
C432        C  0.91540630  0.61086045  0.24758220     0.02100
H433        H  0.85791267  0.61154760  0.22007337     0.15900
H434        H  0.88750970  0.64388354  0.24720930     0.15900
N435        N  0.08905003  0.41243398  0.24791167    -0.00400
C436        C  0.11318858  0.41437650  0.23703999     0.02200
C437        C  0.12707701  0.39158170  0.24131956    -0.20700
C438        C  0.11106228  0.37527209  0.25525743    -0.20900
C439        C  0.08786243  0.38857432  0.25916848     0.02100
H440        H  0.14674013  0.38714905  0.23494969     0.15900
H441        H  0.11598323  0.35589270  0.26198367     0.15900
N442        N  0.08660896  0.58559365  0.24271162    -0.00400
C443        C  0.11093653  0.58415014  0.23217026     0.02200
C444        C  0.12415872  0.60733275  0.23626150    -0.20700
C445        C  0.10762406  0.62332717  0.24993244    -0.20900
C446        C  0.08474833  0.60946897  0.25383857     0.02100
H447        H  0.14384942  0.61209253  0.23022260     0.15900
H448        H  0.11211676  0.64276942  0.25672951     0.15900
O449        O  0.97235322  0.47025242  0.24620394    -0.69800
O450        O  0.02789917  0.52597212  0.24494129    -0.70800
O451        O  0.97223573  0.52584067  0.24376489    -0.59400
O452        O  0.02828183  0.47059142  0.24724780    -0.67900
O453        O  0.02908120  0.46914437  0.20408068    -0.67400
O454        O  0.97322842  0.52387429  0.20061651    -0.58700
O455        O  0.02877988  0.52427099  0.20179119    -0.71200
O456        O  0.97334305  0.46867711  0.20305172    -0.69900
Cu457      Cu  0.00013150  0.49820816  0.24707569     1.04600
Cu458      Cu  0.00111241  0.49640073  0.20092052     1.04300
C459        C  0.96400501  0.46078256  0.22473473     0.96400
C460        C  0.03718801  0.53378785  0.22317486     0.95500
C461        C  0.96399971  0.53358596  0.22155906     0.87600
C462        C  0.03773836  0.46143668  0.22607903     0.93900
N463        N  0.91198406  0.24986106  0.40977911    -0.00400
C464        C  0.91498657  0.26186721  0.38634743     0.02200
C465        C  0.89162502  0.26137026  0.37275589    -0.20700
C466        C  0.87378132  0.24874056  0.38823874    -0.20900
C467        C  0.88677307  0.24176402  0.41082384     0.02100
H468        H  0.88784566  0.26948442  0.35367430     0.15900
H469        H  0.85359106  0.24488871  0.38333624     0.15900
N470        N  0.90760828  0.25680887  0.58282366    -0.00400
C471        C  0.90980062  0.26810461  0.60658342     0.02200
C472        C  0.88596802  0.26732330  0.61931768    -0.20700
C473        C  0.86873197  0.25490577  0.60291464    -0.20900
C474        C  0.88265134  0.24826996  0.58074346     0.02100
H475        H  0.88167507  0.27453681  0.63864446     0.15900
H476        H  0.84853192  0.25040463  0.60721113     0.15900
N477        N  0.09088233  0.25762465  0.41452604    -0.00400
C478        C  0.09014058  0.26659324  0.38973488     0.02200
C479        C  0.11215693  0.25848919  0.37635792    -0.20700
C480        C  0.12682570  0.24400398  0.39353239    -0.20900
C481        C  0.11327562  0.24350974  0.41690254     0.02100
H482        H  0.11684593  0.26221688  0.35615402     0.15900
H483        H  0.14488688  0.23402622  0.38898442     0.15900
N484        N  0.08307674  0.23729144  0.58848843    -0.00400
C485        C  0.08245882  0.24911882  0.61208727     0.02200
C486        C  0.10585630  0.24496076  0.62499056    -0.20700
C487        C  0.12130185  0.23025958  0.60869241    -0.20900
C488        C  0.10677502  0.22574864  0.58641162     0.02100
H489        H  0.11125783  0.25200631  0.64409366     0.15900
H490        H  0.14086522  0.22344351  0.61286833     0.15900
O491        O  0.02427709  0.23163898  0.47467604    -0.69800
O492        O  0.96770192  0.24462955  0.52681556    -0.70800
O493        O  0.96925740  0.24043638  0.47139405    -0.59400
O494        O  0.02262517  0.23692246  0.52978698    -0.67900
O495        O  0.02861876  0.27961361  0.52617044    -0.67400
O496        O  0.97638101  0.28299852  0.46851736    -0.58700
O497        O  0.97391167  0.28731808  0.52374684    -0.71200
O498        O  0.03127601  0.27418111  0.47119104    -0.69900
Cu499      Cu  0.99570527  0.23690451  0.50076361     1.04600
Cu500      Cu  0.00275046  0.28248993  0.49724051     1.04300
C501        C  0.03687340  0.25069132  0.46484237     0.96400
C502        C  0.96200918  0.26783155  0.53378188     0.95500
C503        C  0.96452193  0.26256461  0.46080525     0.87600
C504        C  0.03391885  0.25795725  0.53712742     0.93900
O505        O  0.02983162  0.31087272  0.34803449    -0.69800
O506        O  0.97384311  0.34766774  0.30617707    -0.70800
O507        O  0.97407757  0.30902462  0.34692306    -0.59400
O508        O  0.02938969  0.34914284  0.30731123    -0.67900
O509        O  0.03082629  0.31710130  0.27829578    -0.67400
O510        O  0.97537551  0.27817174  0.31665560    -0.58700
O511        O  0.97545514  0.31590445  0.27688602    -0.71200
O512        O  0.03089681  0.27959868  0.31820832    -0.69900
Cu513      Cu  0.00170604  0.33032206  0.32821822     1.04600
Cu514      Cu  0.00318741  0.29664538  0.29654565     1.04300
C515        C  0.03932540  0.28948755  0.33939833     0.96400
C516        C  0.96591229  0.33744170  0.28489087     0.95500
C517        C  0.96592228  0.28732086  0.33772319     0.87600
C518        C  0.03888253  0.33909934  0.28657258     0.93900
O519        O  0.80566385  0.15475981  0.46890595    -0.69800
O520        O  0.84447188  0.19704788  0.52362631    -0.70800
O521        O  0.80594481  0.15634973  0.52420381    -0.59400
O522        O  0.84488100  0.19513951  0.46822562    -0.67900
O523        O  0.81346176  0.22498322  0.46729714    -0.67400
O524        O  0.77472065  0.18640404  0.52315313    -0.58700
O525        O  0.81251810  0.22630386  0.52253893    -0.71200
O526        O  0.77512293  0.18548347  0.46787823    -0.69900
Cu527      Cu  0.82639103  0.17473425  0.49626881     1.04600
Cu528      Cu  0.79291157  0.20678323  0.49518621     1.04300
C529        C  0.78421632  0.16381874  0.45975818     0.96400
C530        C  0.83422781  0.21833482  0.53174924     0.95500
C531        C  0.78417988  0.16533071  0.53245447     0.87600
C532        C  0.83528498  0.21621103  0.45899873     0.93900
O533        O  0.17476597  0.19677165  0.52790066    -0.69800
O534        O  0.20455985  0.15316769  0.47017616    -0.70800
O535        O  0.17758268  0.20190085  0.47255916    -0.59400
O536        O  0.20130047  0.14844059  0.52490745    -0.67900
O537        O  0.16303006  0.12838335  0.52136450    -0.67400
O538        O  0.13890462  0.18256657  0.46967736    -0.58700
O539        O  0.16603755  0.13388502  0.46540154    -0.71200
O540        O  0.13651482  0.17668088  0.52434956    -0.69900
Cu541      Cu  0.19085155  0.17578817  0.49896645     1.04600
Cu542      Cu  0.14983176  0.15455430  0.49498377     1.04300
C543        C  0.15120076  0.19347159  0.53542621     0.96400
C544        C  0.18992359  0.13673038  0.45857005     0.95500
C545        C  0.15446668  0.20091843  0.46315038     0.87600
C546        C  0.18562264  0.13032821  0.53179387     0.93900
O547        O  0.80986900  0.52198481  0.14404348    -0.69800
O548        O  0.84857366  0.46683229  0.18480460    -0.70800
O549        O  0.80731344  0.46664039  0.14637627    -0.59400
O550        O  0.85040875  0.52233579  0.18247869    -0.67900
O551        O  0.82005781  0.52449110  0.21331018    -0.67400
O552        O  0.77830247  0.46900450  0.17844428    -0.58700
O553        O  0.81855352  0.46915198  0.21593766    -0.71200
O554        O  0.78033108  0.52417024  0.17564732    -0.69900
Cu555      Cu  0.83014954  0.49428635  0.16328312     1.04600
Cu556      Cu  0.79834491  0.49674090  0.19688376     1.04300
C557        C  0.78910272  0.53191984  0.15369553     0.96400
C558        C  0.83960940  0.45938656  0.20683157     0.95500
C559        C  0.78585608  0.45926523  0.15689625     0.87600
C560        C  0.84149172  0.53244984  0.20346215     0.93900
O561        O  0.15393388  0.52665065  0.18648247    -0.69800
O562        O  0.19466138  0.47078158  0.14892499    -0.70800
O563        O  0.15396955  0.47139245  0.18777130    -0.59400
O564        O  0.19514359  0.52625994  0.14806570    -0.67900
O565        O  0.22429713  0.52650336  0.18005464    -0.67400
O566        O  0.18447554  0.47197414  0.21849238    -0.58700
O567        O  0.22430023  0.47124626  0.18046049    -0.71200
O568        O  0.18405758  0.52713424  0.21757851    -0.69900
Cu569      Cu  0.17333287  0.49876386  0.16665617     1.04600
Cu570      Cu  0.20526740  0.49923874  0.20018737     1.04300
C571        C  0.16262156  0.53556259  0.20803026     0.96400
C572        C  0.21592663  0.46225142  0.15883557     0.95500
C573        C  0.16303036  0.46314038  0.20949704     0.87600
C574        C  0.21634783  0.53491732  0.15808955     0.93900
O575        O  0.71762340  0.31785083  0.02278120    -0.69800
O576        O  0.68006767  0.27526230  0.96915081    -0.70800
O577        O  0.71716411  0.31587645  0.96748371    -0.59400
O578        O  0.68113695  0.27706430  0.02430324    -0.67900
O579        O  0.64825782  0.30531837  0.02409849    -0.67400
O580        O  0.68564903  0.34562497  0.96695113    -0.58700
O581        O  0.64753531  0.30389294  0.96864836    -0.71200
O582        O  0.68560825  0.34707659  0.02246850    -0.69900
Cu583      Cu  0.70006448  0.29558945  0.99592610     1.04600
Cu584      Cu  0.66557706  0.32657378  0.99548077     1.04300
C585        C  0.70748913  0.33892644  0.03131045     0.96400
C586        C  0.65786971  0.28268556  0.96054587     0.95500
C587        C  0.70737235  0.33676975  0.95824559     0.87600
C588        C  0.65924211  0.28482662  0.03323254     0.93900
O589        O  0.80628341  0.46813847  0.84212755    -0.69800
O590        O  0.84569633  0.52504774  0.80431442    -0.70800
O591        O  0.80540678  0.52363035  0.84349156    -0.59400
O592        O  0.84647996  0.46965020  0.80251122    -0.67900
O593        O  0.81519197  0.46983477  0.77258716    -0.67400
O594        O  0.77596659  0.52450469  0.81176503    -0.58700
O595        O  0.81531591  0.52503083  0.77347271    -0.71200
O596        O  0.77598192  0.46915127  0.81123110    -0.69900
Cu597      Cu  0.82708317  0.49657536  0.82426147     1.04600
Cu598      Cu  0.79460270  0.49712179  0.79126820     1.04300
C599        C  0.78477565  0.45983044  0.83254725     0.96400
C600        C  0.83662425  0.53388520  0.78285295     0.95500
C601        C  0.78431529  0.53274713  0.83364294     0.87600
C602        C  0.83702154  0.46130609  0.78100208     0.93900
O603        O  0.02893590  0.34125660  0.69123836    -0.69800
O604        O  0.97268008  0.30622796  0.64876372    -0.70800
O605        O  0.97358621  0.34504567  0.68858678    -0.59400
O606        O  0.02803474  0.30182461  0.65132129    -0.67900
O607        O  0.02447761  0.27148976  0.68197538    -0.67400
O608        O  0.97026065  0.31387998  0.71842929    -0.58700
O609        O  0.96902174  0.27568414  0.67918527    -0.71200
O610        O  0.02556015  0.31010067  0.72106364    -0.69900
Cu611      Cu  0.00100231  0.32468324  0.66887851     1.04600
Cu612      Cu  0.99724041  0.29173387  0.70117057     1.04300
C613        C  0.03598476  0.33119793  0.71291462     0.96400
C614        C  0.96172266  0.28564527  0.65757811     0.95500
C615        C  0.96318784  0.33590934  0.70932062     0.87600
C616        C  0.03477779  0.27981335  0.66094827     0.93900
O617        O  0.15164394  0.46763756  0.80701069    -0.69800
O618        O  0.19395616  0.52317026  0.84412186    -0.70800
O619        O  0.15366531  0.52309268  0.80466226    -0.59400
O620        O  0.19208156  0.46755827  0.84601902    -0.67900
O621        O  0.22181161  0.46564500  0.81457844    -0.67400
O622        O  0.18458771  0.52077624  0.77440215    -0.58700
O623        O  0.22375139  0.52106370  0.81277279    -0.71200
O624        O  0.18230898  0.46551610  0.77650493    -0.69900
Cu625      Cu  0.17172052  0.49546899  0.82661206     1.04600
Cu626      Cu  0.20410810  0.49318720  0.79356911     1.04300
C627        C  0.16056741  0.45775341  0.78594581     0.96400
C628        C  0.21548066  0.53091770  0.83405718     0.95500
C629        C  0.16339775  0.53062184  0.78295370     0.87600
C630        C  0.21293785  0.45770134  0.83637500     0.93900
O631        O  0.27673968  0.31070691  0.96997241    -0.69800
O632        O  0.31363271  0.27297056  0.02715225    -0.70800
O633        O  0.27614994  0.31317940  0.02526885    -0.59400
O634        O  0.31431266  0.27064532  0.97191410    -0.67900
O635        O  0.34655106  0.29958262  0.97126748    -0.67400
O636        O  0.30728614  0.34327174  0.02407397    -0.58700
O637        O  0.34562335  0.30219015  0.02660410    -0.71200
O638        O  0.30815983  0.34051421  0.96863233    -0.69900
Cu639      Cu  0.29415159  0.29091255  0.99861080     1.04600
Cu640      Cu  0.32806317  0.32248030  0.99761092     1.04300
C641        C  0.28649355  0.33138438  0.96019133     0.96400
C642        C  0.33533812  0.28144360  0.03591475     0.95500
C643        C  0.28558879  0.33481442  0.03313956     0.87600
C644        C  0.33638053  0.27829557  0.96319055     0.93900
O645        O  0.52507949  0.21618221  0.81368172    -0.69800
O646        O  0.46853124  0.17814095  0.77535424    -0.70800
O647        O  0.46960585  0.21595159  0.81509334    -0.59400
O648        O  0.52398371  0.17864415  0.77363710    -0.67900
O649        O  0.52543454  0.14685416  0.80294602    -0.67400
O650        O  0.47018885  0.18472107  0.84502674    -0.58700
O651        O  0.46984889  0.14618358  0.80448793    -0.71200
O652        O  0.52586310  0.18513578  0.84380089    -0.69900
Cu653      Cu  0.49677204  0.19828731  0.79346048     1.04600
Cu654      Cu  0.49788049  0.16458734  0.82515310     1.04300
C655        C  0.53432823  0.20677707  0.83477366     0.96400
C656        C  0.46035269  0.15616905  0.78373349     0.95500
C657        C  0.46114585  0.20632333  0.83638176     0.87600
C658        C  0.53333911  0.15701311  0.78158003     0.93900
O659        O  0.47223353  0.21687439  0.17903818    -0.69800
O660        O  0.52717016  0.17876675  0.21920513    -0.70800
O661        O  0.52783704  0.21597420  0.17891457    -0.59400
O662        O  0.47182961  0.17975059  0.21927595    -0.67900
O663        O  0.47104538  0.14763293  0.19033180    -0.67400
O664        O  0.52735643  0.18465385  0.14910932    -0.58700
O665        O  0.52654382  0.14648394  0.19044427    -0.71200
O666        O  0.47158711  0.18558625  0.14920210    -0.69900
Cu667      Cu  0.49979653  0.19891376  0.20003830     1.04600
Cu668      Cu  0.49913427  0.16493460  0.16865944     1.04300
C669        C  0.46303197  0.20728220  0.15805185     0.96400
C670        C  0.53540006  0.15663458  0.21140808     0.95500
C671        C  0.53654275  0.20614110  0.15782138     0.87600
C672        C  0.46262908  0.15806710  0.21134159     0.93900
O673        O  0.27766612  0.96337451  0.67943164    -0.69800
O674        O  0.31720076  0.01774128  0.71925037    -0.70800
O675        O  0.27694878  0.01849756  0.68167910    -0.59400
O676        O  0.31743432  0.96239288  0.71713123    -0.67900
O677        O  0.34773918  0.96361281  0.68619848    -0.67400
O678        O  0.30611869  0.02022050  0.64972107    -0.58700
O679        O  0.34745015  0.01916171  0.68829472    -0.71200
O680        O  0.30717601  0.96484243  0.64776397    -0.69900
Cu681      Cu  0.29636175  0.99048490  0.70043028     1.04600
Cu682      Cu  0.32824735  0.99206278  0.66685958     1.04300
C683        C  0.28612970  0.95549953  0.65741527     0.96400
C684        C  0.33850747  0.02700525  0.71019490     0.95500
C685        C  0.28469254  0.02795576  0.66005770     0.87600
C686        C  0.33870858  0.95394887  0.70734730     0.93900
O687        O  0.53217605  0.81185542  0.77056741    -0.69800
O688        O  0.47912281  0.77389540  0.81360855    -0.70800
O689        O  0.47661524  0.81042455  0.77259422    -0.59400
O690        O  0.53453911  0.77544100  0.81146063    -0.67900
O691        O  0.53469995  0.80735041  0.84065094    -0.67400
O692        O  0.47677277  0.84310442  0.80091030    -0.58700
O693        O  0.47921422  0.80575312  0.84283625    -0.71200
O694        O  0.53225994  0.84446433  0.79896315    -0.69900
Cu695      Cu  0.50559338  0.79182290  0.79109393     1.04600
Cu696      Cu  0.50572687  0.82634784  0.82187908     1.04300
C697        C  0.54070829  0.83400890  0.77797936     0.96400
C698        C  0.47081291  0.78365565  0.83491097     0.95500
C699        C  0.46759401  0.83223228  0.78046557     0.87600
C700        C  0.54377493  0.78577200  0.83207487     0.93900
O701        O  0.31610407  0.64664413  0.96505764    -0.69800
O702        O  0.35460229  0.68571880  0.02203108    -0.70800
O703        O  0.31583151  0.64498121  0.02067285    -0.59400
O704        O  0.35492826  0.68721543  0.96661856    -0.67900
O705        O  0.32304687  0.71657600  0.96736789    -0.67400
O706        O  0.28485902  0.67528925  0.02136222    -0.58700
O707        O  0.32270429  0.71505873  0.02247599    -0.71200
O708        O  0.28512086  0.67692848  0.96599983    -0.69900
Cu709      Cu  0.33650938  0.66500880  0.99356763     1.04600
Cu710      Cu  0.30288151  0.69691266  0.99431680     1.04300
C711        C  0.29455408  0.65597755  0.95648646     0.96400
C712        C  0.34450308  0.70666039  0.03111516     0.95500
C713        C  0.29427368  0.65382040  0.02970927     0.87600
C714        C  0.34493731  0.70860197  0.95853354     0.93900
O715        O  0.53325534  0.77576724  0.17927583    -0.69800
O716        O  0.47490671  0.81044277  0.21799845    -0.70800
O717        O  0.47770533  0.77263935  0.17817650    -0.59400
O718        O  0.53040517  0.81365114  0.21893095    -0.67900
O719        O  0.52916254  0.84537902  0.18955400    -0.67400
O720        O  0.47687137  0.80348312  0.14785790    -0.58700
O721        O  0.47361282  0.84204266  0.18848589    -0.71200
O722        O  0.53246483  0.80674340  0.14909710    -0.69900
Cu723      Cu  0.50409428  0.79207385  0.19958373     1.04600
Cu724      Cu  0.50295434  0.82553957  0.16766096     1.04300
C725        C  0.54219485  0.78567533  0.15828825     0.96400
C726        C  0.46509912  0.83168052  0.20951709     0.95500
C727        C  0.46899159  0.78150864  0.15663427     0.87600
C728        C  0.53817131  0.83584467  0.21074584     0.93900
O729        O  0.30771306  0.96567682  0.34355112    -0.69800
O730        O  0.34899751  0.02160104  0.30627150    -0.70800
O731        O  0.30795418  0.02122831  0.34433023    -0.59400
O732        O  0.34900598  0.96599630  0.30538409    -0.67900
O733        O  0.31935140  0.96700377  0.27387192    -0.67400
O734        O  0.27838031  0.02095677  0.31273690    -0.58700
O735        O  0.31864090  0.02251129  0.27540831    -0.71200
O736        O  0.27904197  0.96556085  0.31112055    -0.69900
Cu737      Cu  0.32951113  0.99359687  0.32603104     1.04600
Cu738      Cu  0.29789408  0.99404121  0.29221739     1.04300
C739        C  0.28697335  0.95669342  0.33293596     0.96400
C740        C  0.33990297  0.03110285  0.28510601     0.95500
C741        C  0.28664364  0.02975471  0.33446548     0.87600
C742        C  0.34037891  0.95773503  0.28350887     0.93900
O743        O  0.22505706  0.80862916  0.52168894    -0.69800
O744        O  0.18582594  0.76946690  0.46712851    -0.70800
O745        O  0.22454121  0.80837516  0.46639628    -0.59400
O746        O  0.18613609  0.76988750  0.52234492    -0.67900
O747        O  0.15495808  0.79999044  0.52248274    -0.67400
O748        O  0.19389045  0.83901610  0.46612282    -0.58700
O749        O  0.15444633  0.79937118  0.46703935    -0.71200
O750        O  0.19479227  0.83965724  0.52157449    -0.69900
Cu751      Cu  0.20641111  0.78809446  0.49438545     1.04600
Cu752      Cu  0.17340384  0.82065483  0.49431683     1.04300
C753        C  0.21622974  0.83020682  0.53030012     0.96400
C754        C  0.16409829  0.77802020  0.45847124     0.95500
C755        C  0.21528956  0.82961460  0.45731101     0.87600
C756        C  0.16457839  0.77869415  0.53123095     0.93900
O757        O  0.02576261  0.64748257  0.30314538    -0.69800
O758        O  0.96964344  0.68679588  0.34258835    -0.70800
O759        O  0.97017978  0.64882809  0.30129782    -0.59400
O760        O  0.02531612  0.68529020  0.34461246    -0.67900
O761        O  0.02715225  0.71664274  0.31485074    -0.67400
O762        O  0.97182961  0.68128589  0.27273120    -0.58700
O763        O  0.97184398  0.71831306  0.31300663    -0.71200
O764        O  0.02709886  0.67985295  0.27444562    -0.69900
Cu765      Cu  0.99763079  0.66591074  0.32402006     1.04600
Cu766      Cu  0.99952005  0.70006837  0.29282797     1.04300
C767        C  0.03524858  0.65780927  0.28251216     0.96400
C768        C  0.96197315  0.70883031  0.33372216     0.95500
C769        C  0.96239765  0.65949152  0.28014876     0.87600
C770        C  0.03507493  0.70665788  0.33619296     0.93900
O771        O  0.78253573  0.81668037  0.47004380    -0.69800
O772        O  0.82017853  0.77564786  0.52481892    -0.70800
O773        O  0.78205614  0.81518624  0.52516754    -0.59400
O774        O  0.82022124  0.77688935  0.46952086    -0.67900
O775        O  0.85220056  0.80614157  0.47036205    -0.67400
O776        O  0.81262158  0.84589929  0.52590216    -0.58700
O777        O  0.85166617  0.80540408  0.52570722    -0.71200
O778        O  0.81373036  0.84675426  0.47061211    -0.69900
Cu779      Cu  0.80022229  0.79509256  0.49737615     1.04600
Cu780      Cu  0.83373240  0.82712736  0.49820609     1.04300
C781        C  0.79214954  0.83804506  0.46161944     0.96400
C782        C  0.84177295  0.78406246  0.53397533     0.95500
C783        C  0.79096586  0.83654266  0.53417731     0.87600
C784        C  0.84200637  0.78538967  0.46100903     0.93900
O785        O  0.69301271  0.02539611  0.34603504    -0.69800
O786        O  0.65505646  0.96810846  0.30720111    -0.70800
O787        O  0.69588759  0.96990655  0.34613964    -0.59400
O788        O  0.65278301  0.02366541  0.30736574    -0.67900
O789        O  0.68354594  0.02499489  0.27689140    -0.67400
O790        O  0.72522323  0.97094464  0.31429380    -0.58700
O791        O  0.68542183  0.96974746  0.27636846    -0.71200
O792        O  0.72304331  0.02622243  0.31484050    -0.69900
Cu793      Cu  0.67307964  0.99666062  0.32784802     1.04600
Cu794      Cu  0.70529266  0.99799365  0.29457969     1.04300
C795        C  0.71391856  0.03495169  0.33625711     0.96400
C796        C  0.66434834  0.96007511  0.28550160     0.95500
C797        C  0.71740175  0.96203395  0.33612244     0.87600
C798        C  0.66182019  0.03298612  0.28607601     0.93900
O799        O  0.02753197  0.68593370  0.64659667    -0.69800
O800        O  0.97418869  0.64600985  0.68921953    -0.70800
O801        O  0.97201022  0.68617834  0.65004833    -0.59400
O802        O  0.02970816  0.64583228  0.68551026    -0.67900
O803        O  0.03146068  0.67638352  0.71606378    -0.67400
O804        O  0.97405004  0.71602006  0.68126660    -0.58700
O805        O  0.97606305  0.67674613  0.71956376    -0.71200
O806        O  0.02948123  0.71566717  0.67791386    -0.69900
Cu807      Cu  0.00075623  0.66487069  0.66672147     1.04600
Cu808      Cu  0.00282072  0.69719532  0.69973355     1.04300
C809        C  0.03707858  0.70701835  0.65588535     0.96400
C810        C  0.96663731  0.65537173  0.71105673     0.95500
C811        C  0.96405619  0.70753588  0.66016496     0.87600
C812        C  0.03974048  0.65503969  0.70635813     0.93900
O813        O  0.65216908  0.02605703  0.68550820    -0.69800
O814        O  0.69323498  0.97287058  0.64474623    -0.70800
O815        O  0.65403022  0.97068986  0.68437252    -0.59400
O816        O  0.69201107  0.02813837  0.64591240    -0.67900
O817        O  0.72225228  0.02830948  0.67690900    -0.67400
O818        O  0.68508216  0.97119488  0.71454635    -0.58700
O819        O  0.72369206  0.97303666  0.67552590    -0.71200
O820        O  0.68325532  0.02665924  0.71564090    -0.69900
Cu821      Cu  0.67174069  0.99946423  0.66403948     1.04600
Cu822      Cu  0.70460567  0.99981704  0.69668700     1.04300
C823        C  0.66133460  0.03478091  0.70694690     0.96400
C824        C  0.71485041  0.96444744  0.65393281     0.95500
C825        C  0.66391592  0.96176720  0.70544862     0.87600
C826        C  0.71319374  0.03719939  0.65556431     0.93900
O827        O  0.65735196  0.69505722  0.96905720    -0.69800
O828        O  0.69779617  0.65282772  0.02221752    -0.70800
O829        O  0.65940279  0.69416373  0.02434016    -0.59400
O830        O  0.69495532  0.65378372  0.96701841    -0.67900
O831        O  0.72680323  0.68315719  0.96632299    -0.67400
O832        O  0.69153106  0.72321603  0.02359188    -0.58700
O833        O  0.72908823  0.68278398  0.02151428    -0.71200
O834        O  0.68983588  0.72373632  0.96820266    -0.69900
Cu835      Cu  0.67621117  0.67291038  0.99573921     1.04600
Cu836      Cu  0.71037646  0.70422257  0.99489964     1.04300
C837        C  0.66766555  0.71591166  0.96002985     0.96400
C838        C  0.71993274  0.66132853  0.03012468     0.95500
C839        C  0.66984461  0.71511157  0.03289775     0.87600
C840        C  0.71647629  0.66224103  0.95763276     0.93900
C841        C  0.05530871  0.26393300  0.64864017    -0.13300
C842        C  0.06021030  0.26414556  0.62295163    -0.28500
H843        H  0.06641906  0.25102731  0.66125384     0.15700
H844        H  0.04770111  0.27524667  0.60999487     0.16300
C845        C  0.11590704  0.21081557  0.56344675    -0.13300
C846        C  0.14143439  0.20893426  0.55754010    -0.28500
H847        H  0.10145904  0.20179612  0.55087705     0.15700
H848        H  0.15577994  0.21937850  0.56909499     0.16300
C849        C  0.05334984  0.25796425  0.55835591    -0.13300
C850        C  0.06256204  0.23614728  0.56935219    -0.28500
H851        H  0.06120826  0.27663002  0.56454100     0.15700
H852        H  0.05634571  0.21723904  0.56215923     0.16300
C853        C  0.06781248  0.28077057  0.37780933    -0.13300
C854        C  0.06084203  0.27603903  0.35301402    -0.28500
H855        H  0.05644676  0.29415925  0.38963484     0.15700
H856        H  0.07115929  0.26110464  0.34208599     0.16300
C857        C  0.12120670  0.22750188  0.43979412    -0.13300
C858        C  0.14634299  0.22059642  0.44372008    -0.28500
H859        H  0.10627269  0.22023426  0.45289420     0.15700
H860        H  0.16164681  0.22938219  0.43198821     0.16300
C861        C  0.05797349  0.24494483  0.44605134    -0.13300
C862        C  0.07185879  0.26368286  0.43427338    -0.28500
H863        H  0.06172025  0.22470358  0.44115012     0.15700
H864        H  0.06706751  0.28401350  0.43771822     0.16300
C865        C  0.93427413  0.27808670  0.61840112    -0.13300
C866        C  0.93951591  0.27373852  0.64369304    -0.28500
H867        H  0.94792697  0.28903291  0.60649244     0.15700
H868        H  0.92668550  0.26113787  0.65492957     0.16300
C869        C  0.87200230  0.23299210  0.55855818    -0.13300
C870        C  0.84646095  0.23389181  0.55259250    -0.28500
H871        H  0.88517879  0.22122418  0.54688511     0.15700
H872        H  0.83378186  0.24725089  0.56307353     0.16300
C873        C  0.92802107  0.25237893  0.56410063    -0.13300
C874        C  0.94171785  0.27220514  0.55378060    -0.28500
H875        H  0.93092556  0.23268434  0.55693136     0.15700
H876        H  0.93763830  0.29203470  0.55994319     0.16300
C877        C  0.93931463  0.27379002  0.37593678    -0.13300
C878        C  0.94440642  0.27299017  0.35028079    -0.28500
H879        H  0.95272441  0.28373385  0.38887569     0.15700
H880        H  0.93215993  0.26118573  0.33765766     0.16300
C881        C  0.87448502  0.22785891  0.43301367    -0.13300
C882        C  0.84881973  0.23050163  0.43808823    -0.28500
H883        H  0.88657961  0.21576259  0.44549354     0.15700
H884        H  0.83720895  0.24417103  0.42680744     0.16300
C885        C  0.93142993  0.24554089  0.42966714    -0.13300
C886        C  0.94528571  0.26540240  0.43951173    -0.28500
H887        H  0.93332295  0.22621979  0.43810793     0.15700
H888        H  0.94177670  0.28493014  0.43215403     0.16300
C889        C  0.06171268  0.61971409  0.26812122    -0.13300
C890        C  0.05659643  0.64538687  0.26792356    -0.28500
H891        H  0.04887022  0.60636451  0.27839293     0.15700
H892        H  0.06832347  0.65820014  0.25578041     0.16300
C893        C  0.14868566  0.55647283  0.22188822    -0.13300
C894        C  0.12288440  0.56102253  0.21950413    -0.28500
H895        H  0.16026491  0.56846193  0.23493866     0.15700
H896        H  0.11081252  0.54781214  0.20825929     0.16300
C897        C  0.06698259  0.56550496  0.24396180    -0.13300
C898        C  0.05797574  0.55379338  0.22238118    -0.28500
H899        H  0.05804760  0.56125402  0.26266160     0.15700
H900        H  0.06579292  0.55941364  0.20354673     0.16300
C901        C  0.06496075  0.37765323  0.27308270    -0.13300
C902        C  0.06009722  0.35194770  0.27216459    -0.28500
H903        H  0.05195514  0.39060257  0.28365312     0.15700
H904        H  0.07198056  0.33955238  0.25974782     0.16300
C905        C  0.14984693  0.44238684  0.22429992    -0.13300
C906        C  0.12407542  0.43741508  0.22322634    -0.28500
H907        H  0.16213794  0.43090421  0.23718837     0.15700
H908        H  0.11129990  0.45017819  0.21221665     0.16300
C909        C  0.05910537  0.44206030  0.22646761    -0.13300
C910        C  0.06867533  0.43180954  0.24852644    -0.28500
H911        H  0.06705680  0.43569264  0.20793269     0.15700
H912        H  0.05973554  0.43661543  0.26708731     0.16300
C913        C  0.94182660  0.64741446  0.26411236    -0.13300
C914        C  0.93712330  0.62162984  0.26348712    -0.28500
H915        H  0.93073923  0.66035264  0.25152735     0.15700
H916        H  0.94955863  0.60839032  0.27437448     0.16300
C917        C  0.88015330  0.56024544  0.21330400    -0.13300
C918        C  0.85472586  0.55448772  0.21624236    -0.28500
H919        H  0.89269087  0.54721892  0.20235462     0.15700
H920        H  0.84276991  0.56653658  0.22893367     0.16300
C921        C  0.93420262  0.56666653  0.24029639    -0.13300
C922        C  0.94360999  0.55382504  0.21955785    -0.28500
H923        H  0.94252312  0.56325611  0.25943372     0.15700
H924        H  0.93653053  0.55884266  0.20027821     0.16300
C925        C  0.93897500  0.37512024  0.27025965    -0.13300
C926        C  0.94484263  0.34957227  0.26952916    -0.28500
H927        H  0.95105274  0.38846060  0.28139597     0.15700
H928        H  0.93393903  0.33680305  0.25663199     0.16300
C929        C  0.87860462  0.43394297  0.22059189    -0.13300
C930        C  0.85273240  0.43858084  0.22171637    -0.28500
H931        H  0.89114526  0.44705185  0.20971948     0.15700
H932        H  0.84052321  0.42680873  0.23442097     0.16300
C933        C  0.93386530  0.42956532  0.24620941    -0.13300
C934        C  0.94324812  0.44072199  0.22446618    -0.28500
H935        H  0.94247401  0.43423354  0.26494710     0.15700
H936        H  0.93579196  0.43445044  0.20570738     0.16300
C937        C  0.73424548  0.62150369  0.05410384    -0.13300
C938        C  0.73487349  0.64747283  0.05039199    -0.28500
H939        H  0.72386117  0.60923044  0.04040900     0.15700
H940        H  0.74719055  0.65942797  0.06279159     0.16300
C941        C  0.77886453  0.55946063  0.11517488    -0.13300
C942        C  0.77540832  0.55338359  0.14040867    -0.28500
H943        H  0.79072897  0.54707167  0.10276331     0.15700
H944        H  0.76195037  0.56483113  0.15211838     0.16300
C945        C  0.75950691  0.56572797  0.05944348    -0.13300
C946        C  0.73816810  0.55680636  0.04730034    -0.28500
H947        H  0.77824389  0.55632103  0.05621033     0.15700
H948        H  0.71930248  0.56525228  0.05206311     0.16300
C949        C  0.71699276  0.37799619  0.05842804    -0.13300
C950        C  0.72084946  0.35272998  0.05261699    -0.28500
H951        H  0.70519211  0.39019753  0.04580129     0.15700
H952        H  0.73432953  0.34131672  0.06435458     0.16300
C953        C  0.76811982  0.43443791  0.11926510    -0.13300
C954        C  0.76947825  0.43888389  0.14501742    -0.28500
H955        H  0.77892889  0.44677900  0.10588713     0.15700
H956        H  0.75691131  0.42798331  0.15813637     0.16300
C957        C  0.72512819  0.44228932  0.05113655    -0.13300
C958        C  0.74513383  0.43148657  0.06431921    -0.28500
H959        H  0.70522786  0.43653955  0.05567311     0.15700
H960        H  0.76491216  0.43838615  0.06099074     0.16300
C961        C  0.72437475  0.62359082  0.92959510    -0.13300
C962        C  0.72960491  0.64844176  0.93616009    -0.28500
H963        H  0.71073075  0.61222209  0.94113904     0.15700
H964        H  0.74466723  0.65912218  0.92575677     0.16300
C965        C  0.76788201  0.55758244  0.87207385    -0.13300
C966        C  0.77004390  0.55429160  0.84618328    -0.28500
H967        H  0.77498715  0.54261977  0.88520620     0.15700
H968        H  0.76080724  0.56824252  0.83318378     0.16300
C969        C  0.73537470  0.56547031  0.92352347    -0.13300
C970        C  0.75316294  0.55035993  0.93528230    -0.28500
H971        H  0.71509342  0.56470739  0.92971719     0.15700
H972        H  0.77362982  0.55281556  0.93024777     0.16300
C973        C  0.72188158  0.37528673  0.93231596    -0.13300
C974        C  0.72111347  0.34940582  0.93638739    -0.28500
H975        H  0.71320370  0.38836358  0.94646505     0.15700
H976        H  0.73195782  0.33660235  0.92345573     0.16300
C977        C  0.77183840  0.43269920  0.87071482    -0.13300
C978        C  0.76988280  0.43876928  0.84528890    -0.28500
H979        H  0.78402863  0.44440634  0.88344818     0.15700
H980        H  0.75604212  0.42829632  0.83315846     0.16300
C981        C  0.75245889  0.42770514  0.92689768    -0.13300
C982        C  0.73217771  0.43870713  0.93912912    -0.28500
H983        H  0.77216227  0.43472107  0.93043810     0.15700
H984        H  0.71250524  0.43298710  0.93361093     0.16300
C985        C  0.06772786  0.61661934  0.71591969    -0.13300
C986        C  0.06167079  0.64186958  0.71936080    -0.28500
H987        H  0.05536222  0.60421620  0.70403900     0.15700
H988        H  0.07297031  0.65350428  0.73297325     0.16300
C989        C  0.15140338  0.55179325  0.76777807    -0.13300
C990        C  0.12552428  0.55577765  0.76585890    -0.28500
H991        H  0.16472511  0.56415739  0.75687961     0.15700
H992        H  0.11210411  0.54201349  0.77468824     0.16300
C993        C  0.07230093  0.56092895  0.73634563    -0.13300
C994        C  0.06142010  0.54986957  0.75732386    -0.28500
H995        H  0.06466705  0.55671297  0.71707925     0.15700
H996        H  0.06779363  0.55603736  0.77652311     0.16300
C997        C  0.06229150  0.36896083  0.72804521    -0.13300
C998        C  0.05679924  0.34330748  0.72866769    -0.28500
H999        H  0.05027165  0.38200131  0.71647310     0.15700
H1000       H  0.06746097  0.33065748  0.74189399     0.16300
C1001       C  0.12107865  0.43130143  0.77507257    -0.13300
C1002       C  0.14683588  0.43618509  0.77274179    -0.28500
H1003       H  0.10859417  0.44485921  0.78546320     0.15700
H1004       H  0.15871523  0.42358486  0.76052584     0.16300
C1005       C  0.06671851  0.42484453  0.74822682    -0.13300
C1006       C  0.05605247  0.43824972  0.76807853    -0.28500
H1007       H  0.05967025  0.42794121  0.72852991     0.15700
H1008       H  0.06203926  0.43396495  0.78789695     0.16300
C1009       C  0.94061011  0.61704074  0.72558118    -0.13300
C1010       C  0.94562975  0.64274540  0.72612472    -0.28500
H1011       H  0.95387677  0.60393911  0.71559817     0.15700
H1012       H  0.93331737  0.65541627  0.73784199     0.16300
C1013       C  0.85009942  0.55490045  0.76862232    -0.13300
C1014       C  0.87535249  0.56114602  0.77230108    -0.28500
H1015       H  0.83882432  0.56510794  0.75388469     0.15700
H1016       H  0.88724235  0.54972869  0.78558592     0.16300
C1017       C  0.93309684  0.56587588  0.75819652    -0.13300
C1018       C  0.94824613  0.55454222  0.74019157    -0.28500
H1019       H  0.93413025  0.55941889  0.77830836     0.15700
H1020       H  0.94547723  0.55960153  0.71985460     0.16300
C1021       C  0.93614431  0.37505201  0.71869594    -0.13300
C1022       C  0.94197225  0.34983746  0.72270991    -0.28500
H1023       H  0.94854861  0.38706792  0.70643685     0.15700
H1024       H  0.93051162  0.33859857  0.73655243     0.16300
C1025       C  0.87616805  0.43705696  0.76489501    -0.13300
C1026       C  0.85012025  0.44064454  0.76592851    -0.28500
H1027       H  0.88904539  0.45102120  0.77414481     0.15700
H1028       H  0.83742209  0.42800674  0.75465008     0.16300
C1029       C  0.93108653  0.43106416  0.73743570    -0.13300
C1030       C  0.94089482  0.44346223  0.75816961    -0.28500
H1031       H  0.93996221  0.43387078  0.71843533     0.15700
H1032       H  0.93301610  0.43915374  0.77731858     0.16300
C1033       C  0.28269462  0.61482397  0.05627875    -0.13300
C1034       C  0.28049530  0.64041984  0.05108052    -0.28500
H1035       H  0.29339991  0.60225871  0.04309053     0.15700
H1036       H  0.26810278  0.65242632  0.06339698     0.16300
C1037       C  0.23208999  0.55523880  0.14518420    -0.13300
C1038       C  0.23201578  0.55985606  0.11940594    -0.28500
H1039       H  0.24544904  0.56598199  0.15759471     0.15700
H1040       H  0.22023062  0.54776961  0.10666826     0.16300
C1041       C  0.25099932  0.56298330  0.06298493    -0.13300
C1042       C  0.26956622  0.55237295  0.04783418    -0.28500
H1043       H  0.23101177  0.55605048  0.06156501     0.15700
H1044       H  0.28979978  0.55805357  0.05053394     0.16300
C1045       C  0.27347572  0.37478021  0.05807531    -0.13300
C1046       C  0.27169099  0.34891631  0.05402170    -0.28500
H1047       H  0.28380802  0.38688637  0.04417263     0.15700
H1048       H  0.25956348  0.33723641  0.06689837     0.16300
C1049       C  0.22839583  0.43511604  0.12063579    -0.13300
C1050       C  0.23089387  0.44129022  0.14599159    -0.28500
H1051       H  0.21594574  0.44680834  0.10812188     0.15700
H1052       H  0.24485543  0.43074834  0.15795009     0.16300
C1053       C  0.26511632  0.43850845  0.04900431    -0.13300
C1054       C  0.24571745  0.42916226  0.06395568    -0.28500
H1055       H  0.28488720  0.43145169  0.05195711     0.15700
H1056       H  0.22624222  0.43740572  0.06229097     0.16300
C1057       C  0.28258879  0.61820394  0.92843156    -0.13300
C1058       C  0.28032813  0.64351044  0.93484568    -0.28500
H1059       H  0.29462173  0.60533241  0.94017363     0.15700
H1060       H  0.26656918  0.65569956  0.92429516     0.16300
C1061       C  0.23164869  0.55713261  0.87166210    -0.13300
C1062       C  0.23062334  0.55234920  0.84591131    -0.28500
H1063       H  0.22240030  0.54378993  0.88522448     0.15700
H1064       H  0.24184767  0.56452206  0.83269032     0.16300
C1065       C  0.26294002  0.56236170  0.92349139    -0.13300
C1066       C  0.24314213  0.55118847  0.93645888    -0.28500
H1067       H  0.28300636  0.55781973  0.92869973     0.15700
H1068       H  0.22323329  0.55724289  0.93228150     0.16300
C1069       C  0.27523843  0.36905512  0.93185666    -0.13300
C1070       C  0.27242298  0.34388287  0.93851595    -0.28500
H1071       H  0.28777129  0.38168887  0.94330859     0.15700
H1072       H  0.25823276  0.33193386  0.92829318     0.16300
C1073       C  0.22621968  0.43136580  0.87493276    -0.13300
C1074       C  0.22656018  0.43589389  0.84918031    -0.28500
H1075       H  0.21705532  0.44524563  0.88798861     0.15700
H1076       H  0.23770549  0.42298353  0.83659705     0.16300
C1077       C  0.25790227  0.42561737  0.92633596    -0.13300
C1078       C  0.23895118  0.43900984  0.93842686    -0.28500
H1079       H  0.27819689  0.42862040  0.93174467     0.15700
H1080       H  0.21865056  0.43449521  0.93423603     0.16300
C1081       C  0.62209872  0.26989083  0.06078529    -0.13300
C1082       C  0.64764283  0.26982597  0.05478386    -0.28500
H1083       H  0.60846126  0.28090169  0.04889534     0.15700
H1084       H  0.66083691  0.25714288  0.06546208     0.16300
C1085       C  0.55831409  0.21950432  0.14462294    -0.13300
C1086       C  0.56262901  0.21860802  0.11882621    -0.28500
H1087       H  0.57112658  0.23115930  0.15682091     0.15700
H1088       H  0.54871170  0.20898795  0.10613181     0.16300
C1089       C  0.56664851  0.24916299  0.06666284    -0.13300
C1090       C  0.55425151  0.22947284  0.05478196    -0.28500
H1091       H  0.56262527  0.26915838  0.06096796     0.15700
H1092       H  0.55975225  0.20951967  0.05927831     0.16300
C1093       C  0.37334047  0.26838069  0.06307946    -0.13300
C1094       C  0.34774947  0.26700376  0.05740803    -0.28500
H1095       H  0.38629944  0.27989213  0.05090504     0.15700
H1096       H  0.33531006  0.25380774  0.06837188     0.16300
C1097       C  0.43553007  0.21904151  0.11982541    -0.13300
C1098       C  0.44130240  0.22109652  0.14525277    -0.28500
H1099       H  0.44836660  0.20830918  0.10686931     0.15700
H1100       H  0.42943353  0.23366645  0.15751799     0.16300
C1101       C  0.42936263  0.24873754  0.06744402    -0.13300
C1102       C  0.44160756  0.22905221  0.05533581    -0.28500
H1103       H  0.43315886  0.26873873  0.06161929     0.15700
H1104       H  0.43635256  0.20908660  0.06004197     0.16300
C1105       C  0.61919019  0.26635280  0.93585065    -0.13300
C1106       C  0.64516852  0.26696579  0.94009471    -0.28500
H1107       H  0.60608688  0.27614187  0.94924369     0.15700
H1108       H  0.65800241  0.25537245  0.92784740     0.16300
C1109       C  0.56152103  0.21794418  0.87330502    -0.13300
C1110       C  0.55548643  0.22105604  0.84799531    -0.28500
H1111       H  0.54966080  0.20536612  0.88553379     0.15700
H1112       H  0.56613922  0.23525441  0.83642321     0.16300
C1113       C  0.56610910  0.23551112  0.92987306    -0.13300
C1114       C  0.55525566  0.25456552  0.94416703    -0.28500
H1115       H  0.55887355  0.21570255  0.93177040     0.15700
H1116       H  0.56133980  0.27458420  0.94102393     0.16300
C1117       C  0.37498002  0.26292620  0.93792016    -0.13300
C1118       C  0.34908834  0.26283026  0.94255263    -0.28500
H1119       H  0.38801753  0.27291830  0.95121215     0.15700
H1120       H  0.33636785  0.25106476  0.93036878     0.16300
C1121       C  0.43343898  0.21620439  0.87499824    -0.13300
C1122       C  0.44002070  0.22029912  0.85000610    -0.28500
H1123       H  0.44495297  0.20308768  0.88698514     0.15700
H1124       H  0.42954611  0.23495697  0.83884092     0.16300
C1125       C  0.42858620  0.23370404  0.93136534    -0.13300
C1126       C  0.43940642  0.25326925  0.94492560    -0.28500
H1127       H  0.43610770  0.21402760  0.93356680     0.15700
H1128       H  0.43292188  0.27312213  0.94149511     0.16300
C1129       C  0.62134574  0.05858058  0.72083502    -0.13300
C1130       C  0.64747006  0.05543785  0.72133187    -0.28500
H1131       H  0.60913254  0.04409047  0.71145897     0.15700
H1132       H  0.65940094  0.06883556  0.73259584     0.16300
C1133       C  0.55405844  0.14468886  0.76589444    -0.13300
C1134       C  0.56084375  0.11943957  0.76777641    -0.28500
H1135       H  0.56386600  0.15706767  0.75178117     0.15700
H1136       H  0.54985581  0.10648720  0.78041123     0.16300
C1137       C  0.56778645  0.06298857  0.75043969    -0.13300
C1138       C  0.55718362  0.04858346  0.73135896    -0.28500
H1139       H  0.56081067  0.06074048  0.77028436     0.15700
H1140       H  0.56311418  0.05209358  0.71136270     0.16300
C1141       C  0.37743364  0.05307504  0.72373110    -0.13300
C1142       C  0.35162043  0.04801537  0.72483183    -0.28500
H1143       H  0.39032966  0.03993733  0.71332689     0.15700
H1144       H  0.33919177  0.06006723  0.73705738     0.16300
C1145       C  0.43928832  0.14294962  0.76929923    -0.13300
C1146       C  0.43466331  0.11715654  0.77075635    -0.28500
H1147       H  0.42765426  0.15495073  0.75629025     0.15700
H1148       H  0.44753604  0.10479361  0.78215029     0.16300
C1149       C  0.43136667  0.06058292  0.75242367    -0.13300
C1150       C  0.44179137  0.04644179  0.73301625    -0.28500
H1151       H  0.43929440  0.05880561  0.77195345     0.15700
H1152       H  0.43496423  0.04952101  0.71324883     0.16300
C1153       C  0.62676539  0.93254978  0.71599659    -0.13300
C1154       C  0.65176035  0.93976622  0.71932879    -0.28500
H1155       H  0.61389930  0.94407837  0.70374520     0.15700
H1156       H  0.66390052  0.92929960  0.73319182     0.16300
C1157       C  0.56609327  0.87239012  0.76292942    -0.13300
C1158       C  0.56147909  0.84660438  0.76258327    -0.28500
H1159       H  0.55281737  0.88532393  0.77314271     0.15700
H1160       H  0.57365208  0.83400774  0.75065486     0.16300
C1161       C  0.57066843  0.92562165  0.73429556    -0.13300
C1162       C  0.55832856  0.93709459  0.75428541    -0.28500
H1163       H  0.56658917  0.93179003  0.71447543     0.15700
H1164       H  0.56387602  0.93209799  0.77407860     0.16300
C1165       C  0.35194323  0.93226291  0.72069224    -0.13300
C1166       C  0.37734329  0.92645916  0.71762823    -0.28500
H1167       H  0.34027212  0.92110076  0.73441716     0.15700
H1168       H  0.38970157  0.93875469  0.70560074     0.16300
C1169       C  0.44561819  0.84395497  0.76611503    -0.13300
C1170       C  0.44063518  0.86969392  0.76557280    -0.28500
H1171       H  0.43317238  0.83071137  0.75523911     0.15700
H1172       H  0.45420127  0.88323222  0.77452466     0.16300
C1173       C  0.43374389  0.92238435  0.73602132    -0.13300
C1174       C  0.44585521  0.93460598  0.75571221    -0.28500
H1175       H  0.43724094  0.92857984  0.71609687     0.15700
H1176       H  0.44085741  0.92954251  0.77563620     0.16300
C1177       C  0.63163354  0.73015476  0.05881070    -0.13300
C1178       C  0.65759356  0.72975676  0.05442654    -0.28500
H1179       H  0.61848997  0.72093735  0.04504153     0.15700
H1180       H  0.67051436  0.74084529  0.06701716     0.16300
C1181       C  0.56455740  0.77265003  0.14559873    -0.13300
C1182       C  0.57124567  0.77604171  0.12049726    -0.28500
H1183       H  0.57563487  0.75903297  0.15746858     0.15700
H1184       H  0.55912571  0.78797199  0.10787881     0.16300
C1185       C  0.57793305  0.75842766  0.06424634    -0.13300
C1186       C  0.56605671  0.73849219  0.05217286    -0.28500
H1187       H  0.57172992  0.77830387  0.06036296     0.15700
H1188       H  0.57114512  0.71863248  0.05748856     0.16300
C1189       C  0.38282478  0.72049821  0.05769487    -0.13300
C1190       C  0.35711411  0.72138500  0.05230741    -0.28500
H1191       H  0.39585027  0.70923064  0.04538358     0.15700
H1192       H  0.34456743  0.73434958  0.06341401     0.16300
C1193       C  0.44412774  0.76835770  0.11711044    -0.13300
C1194       C  0.44860645  0.76658743  0.14287586    -0.28500
H1195       H  0.45739875  0.77941067  0.10491560     0.15700
H1196       H  0.43645751  0.75383234  0.15466979     0.16300
C1197       C  0.43890557  0.74045965  0.06291652    -0.13300
C1198       C  0.45334659  0.76021092  0.05348694    -0.28500
H1199       H  0.44117031  0.72107773  0.05474921     0.15700
H1200       H  0.44983611  0.77988418  0.06039411     0.16300
C1201       C  0.62943160  0.72980804  0.93366878    -0.13300
C1202       C  0.65511613  0.73067595  0.93889180    -0.28500
H1203       H  0.61626666  0.71962341  0.94673008     0.15700
H1204       H  0.66782299  0.74260176  0.92681425     0.16300
C1205       C  0.57163895  0.77625126  0.87040338    -0.13300
C1206       C  0.56561964  0.77259867  0.84522332    -0.28500
H1207       H  0.55937319  0.78849809  0.88256913     0.15700
H1208       H  0.57670008  0.75862628  0.83378445     0.16300
C1209       C  0.57643917  0.75872631  0.92696962    -0.13300
C1210       C  0.56523809  0.73891830  0.93984636    -0.28500
H1211       H  0.56979914  0.77856750  0.93023795     0.15700
H1212       H  0.57061796  0.71903105  0.93497249     0.16300
C1213       C  0.38349214  0.72302409  0.93273488    -0.13300
C1214       C  0.35782602  0.72428088  0.93822561    -0.28500
H1215       H  0.39626936  0.71085663  0.94444272     0.15700
H1216       H  0.34554957  0.73802591  0.92776828     0.16300
C1217       C  0.44577725  0.77161583  0.87492132    -0.13300
C1218       C  0.45015878  0.76957410  0.84915684    -0.28500
H1219       H  0.45926277  0.78238041  0.88713847     0.15700
H1220       H  0.43766403  0.75696456  0.83758872     0.16300
C1221       C  0.43982618  0.74224289  0.92843812    -0.13300
C1222       C  0.45393346  0.76160110  0.93897990    -0.28500
H1223       H  0.44196629  0.72252679  0.93584782     0.15700
H1224       H  0.45054046  0.78150735  0.93263442     0.16300
C1225       C  0.64815874  0.05389903  0.27194200    -0.13300
C1226       C  0.62276857  0.05978065  0.27509908    -0.28500
H1227       H  0.65968285  0.06473456  0.25784047     0.15700
H1228       H  0.61053124  0.04786017  0.28761090     0.16300
C1229       C  0.55999194  0.11789232  0.22750244    -0.13300
C1230       C  0.55629778  0.14385024  0.22643285    -0.28500
H1231       H  0.54585490  0.10492722  0.21861726     0.15700
H1232       H  0.56921727  0.15663940  0.23730094     0.16300
C1233       C  0.55245667  0.05371046  0.23761518    -0.13300
C1234       C  0.56625854  0.06439013  0.25709464    -0.28500
H1235       H  0.55570757  0.06030805  0.21779439     0.15700
H1236       H  0.56422858  0.05671458  0.27670408     0.16300
C1237       C  0.35289513  0.05311913  0.27207439    -0.13300
C1238       C  0.37855988  0.05819656  0.27406639    -0.28500
H1239       H  0.34067162  0.06571645  0.26018470     0.15700
H1240       H  0.39134805  0.04463046  0.28408115     0.16300
C1241       C  0.43563280  0.12037714  0.22527141    -0.13300
C1242       C  0.44165712  0.14581808  0.22668185    -0.28500
H1243       H  0.44720808  0.10746225  0.21313325     0.15700
H1244       H  0.43133193  0.15823672  0.24037447     0.16300
C1245       C  0.43092870  0.06416538  0.24402953    -0.13300
C1246       C  0.44237202  0.05057838  0.26321761    -0.28500
H1247       H  0.43713256  0.06132253  0.22400611     0.15700
H1248       H  0.43752682  0.05499111  0.28332515     0.16300
C1249       C  0.62598719  0.93315648  0.27235063    -0.13300
C1250       C  0.65158514  0.93896381  0.27070539    -0.28500
H1251       H  0.61322907  0.94499901  0.28440013     0.15700
H1252       H  0.66379964  0.92841258  0.25699174     0.16300
C1253       C  0.56345477  0.87519894  0.22416005    -0.13300
C1254       C  0.55887563  0.84938819  0.22546622    -0.28500
H1255       H  0.55006179  0.88773994  0.21364620     0.15700
H1256       H  0.57130582  0.83730193  0.23766097     0.16300
C1257       C  0.56936227  0.92822777  0.25417275    -0.13300
C1258       C  0.55455186  0.93861148  0.23524214    -0.28500
H1259       H  0.56752966  0.93545058  0.27394951     0.15700
H1260       H  0.55758326  0.93255651  0.21523207     0.16300
C1261       C  0.37910661  0.93078038  0.27143200    -0.13300
C1262       C  0.35347052  0.93623333  0.26956050    -0.28500
H1263       H  0.39197327  0.94376405  0.28207455     0.15700
H1264       H  0.34125106  0.92424658  0.25707944     0.16300
C1265       C  0.43720655  0.86900501  0.22292472    -0.13300
C1266       C  0.44337937  0.84355548  0.22424236    -0.28500
H1267       H  0.44914780  0.88210144  0.21133439     0.15700
H1268       H  0.43271062  0.83092472  0.23748575     0.16300
C1269       C  0.43177777  0.92507199  0.24176055    -0.13300
C1270       C  0.44353354  0.93775769  0.26131618    -0.28500
H1271       H  0.43766618  0.92872811  0.22176941     0.15700
H1272       H  0.43885069  0.93255782  0.28128293     0.16300
C1273       C  0.26827300  0.04812812  0.64773541    -0.13300
C1274       C  0.26754228  0.05265386  0.62195284    -0.28500
H1275       H  0.25480325  0.05834570  0.66046859     0.15700
H1276       H  0.27959770  0.04102630  0.60901524     0.16300
C1277       C  0.21787875  0.10614387  0.55794318    -0.13300
C1278       C  0.19293946  0.11270531  0.55330034    -0.28500
H1279       H  0.23300669  0.11096552  0.54390407     0.15700
H1280       H  0.17770097  0.10631380  0.56658686     0.16300
C1281       C  0.24717317  0.05421813  0.56573904    -0.13300
C1282       C  0.22779348  0.04446548  0.55096672    -0.28500
H1283       H  0.26688548  0.04660197  0.56394229     0.15700
H1284       H  0.20785751  0.05101452  0.55409930     0.16300
C1285       C  0.27502630  0.05819332  0.37210695    -0.13300
C1286       C  0.27130143  0.05042789  0.34736004    -0.28500
H1287       H  0.28919704  0.04821208  0.38426985     0.15700
H1288       H  0.25590026  0.05935370  0.33587364     0.16300
C1289       C  0.20031076  0.12189503  0.43621550    -0.13300
C1290       C  0.22520004  0.11343402  0.43518439    -0.28500
H1291       H  0.18732930  0.11839792  0.41985709     0.15700
H1292       H  0.23764810  0.11483913  0.45224375     0.16300
C1293       C  0.25803884  0.06294147  0.42879619    -0.13300
C1294       C  0.23791325  0.05170538  0.44109766    -0.28500
H1295       H  0.27773114  0.05551103  0.43144778     0.15700
H1296       H  0.21823759  0.05808245  0.43631289     0.16300
C1297       C  0.27478949  0.92887377  0.61859721    -0.13300
C1298       C  0.27161268  0.93472111  0.64393087    -0.28500
H1299       H  0.28725209  0.94089211  0.60640286     0.15700
H1300       H  0.25763966  0.92376970  0.65551301     0.16300
C1301       C  0.23002873  0.86900401  0.55566782    -0.13300
C1302       C  0.23059400  0.84316985  0.55148485    -0.28500
H1303       H  0.22028306  0.88150350  0.54172035     0.15700
H1304       H  0.24216517  0.83077541  0.56419800     0.16300
C1305       C  0.25767166  0.92323024  0.56178477    -0.13300
C1306       C  0.23766747  0.93189937  0.54737728    -0.28500
H1307       H  0.27680560  0.93216618  0.55980800     0.15700
H1308       H  0.21824489  0.92428617  0.55116503     0.16300
C1309       C  0.27068470  0.93116831  0.37070183    -0.13300
C1310       C  0.27253699  0.93491232  0.34486278    -0.28500
H1311       H  0.27825591  0.94577553  0.38395010     0.15700
H1312       H  0.26294517  0.92140514  0.33168357     0.16300
C1313       C  0.22494020  0.86726791  0.42852528    -0.13300
C1314       C  0.22946599  0.84255554  0.43594422    -0.28500
H1315       H  0.21124367  0.87923738  0.43937505     0.15700
H1316       H  0.24453264  0.83128082  0.42618029     0.16300
C1317       C  0.23844568  0.92449716  0.42207739    -0.13300
C1318       C  0.25672712  0.93871371  0.43414154    -0.28500
H1319       H  0.21815686  0.92606169  0.42807374     0.15700
H1320       H  0.27715267  0.93555530  0.42934661     0.16300
C1321       C  0.06278659  0.71947955  0.61655852    -0.13300
C1322       C  0.05821108  0.72108059  0.64229623    -0.28500
H1323       H  0.04912410  0.70920830  0.60414231     0.15700
H1324       H  0.07091126  0.73307366  0.65428163     0.16300
C1325       C  0.15161953  0.76405524  0.55231616    -0.13300
C1326       C  0.12601764  0.76594508  0.55798326    -0.28500
H1327       H  0.16372834  0.75044827  0.56313521     0.15700
H1328       H  0.11339505  0.77795056  0.54594746     0.16300
C1329       C  0.05419545  0.72950040  0.55323042    -0.13300
C1330       C  0.06924911  0.74846582  0.56317507    -0.28500
H1331       H  0.05689482  0.70954184  0.55969337     0.15700
H1332       H  0.06771251  0.76814504  0.55553662     0.16300
C1333       C  0.05680392  0.71958408  0.34988119    -0.13300
C1334       C  0.06145630  0.71754588  0.37557190    -0.28500
H1335       H  0.06974764  0.73143491  0.33797986     0.15700
H1336       H  0.04759123  0.70757369  0.38805025     0.16300
C1337       C  0.12537304  0.76484522  0.43239775    -0.13300
C1338       C  0.15097661  0.76296059  0.43788638    -0.28500
H1339       H  0.11290090  0.77725993  0.44416477     0.15700
H1340       H  0.16294579  0.74900549  0.42735988     0.16300
C1341       C  0.05352860  0.72854328  0.43906251    -0.13300
C1342       C  0.06862207  0.74719415  0.42855025    -0.28500
H1343       H  0.05598548  0.70846636  0.43288016     0.15700
H1344       H  0.06733737  0.76700470  0.43586457     0.16300
C1345       C  0.93700203  0.72159589  0.62262595    -0.13300
C1346       C  0.94280604  0.72268651  0.64812053    -0.28500
H1347       H  0.94887612  0.70980240  0.60965977     0.15700
H1348       H  0.93228591  0.73612118  0.66065457     0.16300
C1349       C  0.85433210  0.76943041  0.55524613    -0.13300
C1350       C  0.88004017  0.77063565  0.56047675    -0.28500
H1351       H  0.84176030  0.75737544  0.56733363     0.15700
H1352       H  0.89312237  0.78090497  0.54738414     0.16300
C1353       C  0.93196463  0.73981012  0.56628450    -0.13300
C1354       C  0.94424325  0.75884564  0.55318671    -0.28500
H1355       H  0.93722453  0.71957739  0.56291357     0.15700
H1356       H  0.94020830  0.77905120  0.55805501     0.16300
C1357       C  0.93458621  0.72106736  0.37168399    -0.13300
C1358       C  0.94107218  0.72371727  0.34651708    -0.28500
H1359       H  0.94564349  0.70802945  0.38417926     0.15700
H1360       H  0.93131648  0.73840006  0.33476270     0.16300
C1361       C  0.87994917  0.77199484  0.43409521    -0.13300
C1362       C  0.85425092  0.77147769  0.43920440    -0.28500
H1363       H  0.89334127  0.78136632  0.44751490     0.15700
H1364       H  0.84136233  0.76016692  0.42675293     0.16300
C1365       C  0.93079233  0.73958467  0.42790037    -0.13300
C1366       C  0.94350788  0.75855324  0.44058182    -0.28500
H1367       H  0.93591160  0.71931273  0.43126277     0.15700
H1368       H  0.93960119  0.77876585  0.43561745     0.16300
C1369       C  0.72705320  0.05899937  0.64311876    -0.13300
C1370       C  0.72720099  0.06332645  0.61733904    -0.28500
H1371       H  0.73798662  0.07189207  0.65587146     0.15700
H1372       H  0.71828738  0.04928569  0.60431813     0.16300
C1373       C  0.77380098  0.12684751  0.55977089    -0.13300
C1374       C  0.76985654  0.15197303  0.55339223    -0.28500
H1375       H  0.78697451  0.11485998  0.54830878     0.15700
H1376       H  0.75514409  0.16325233  0.56367237     0.16300
C1377       C  0.75695899  0.06976469  0.56470827    -0.13300
C1378       C  0.73692838  0.05674505  0.55415842    -0.28500
H1379       H  0.77667135  0.06678151  0.55744706     0.15700
H1380       H  0.71720175  0.06180731  0.56013613     0.16300
C1381       C  0.72273204  0.06488441  0.37328267    -0.13300
C1382       C  0.72761969  0.05684462  0.34886061    -0.28500
H1383       H  0.70913389  0.05413278  0.38545308     0.15700
H1384       H  0.74256534  0.06665058  0.33746109     0.16300
C1385       C  0.76876924  0.12456330  0.43536366    -0.13300
C1386       C  0.77016933  0.15057640  0.43845336    -0.28500
H1387       H  0.77679233  0.11169600  0.45010151     0.15700
H1388       H  0.75997783  0.16313857  0.42476978     0.16300
C1389       C  0.75561326  0.06012606  0.44329553    -0.13300
C1390       C  0.73684892  0.07250956  0.43003176    -0.28500
H1391       H  0.77590359  0.06500892  0.43946280     0.15700
H1392       H  0.71659614  0.06665356  0.43237863     0.16300
C1393       C  0.72576726  0.93731139  0.61541450    -0.13300
C1394       C  0.72937954  0.94364331  0.64055446    -0.28500
H1395       H  0.71341143  0.94928672  0.60311523     0.15700
H1396       H  0.74324590  0.93259888  0.65218798     0.16300
C1397       C  0.77532137  0.87536308  0.55862135    -0.13300
C1398       C  0.77598102  0.84944448  0.55492445    -0.28500
H1399       H  0.78558826  0.88823524  0.54531540     0.15700
H1400       H  0.76376196  0.83690464  0.56685631     0.16300
C1401       C  0.75207240  0.93041679  0.56113625    -0.13300
C1402       C  0.73156573  0.94362309  0.55132377    -0.28500
H1403       H  0.77148032  0.93367285  0.55323249     0.15700
H1404       H  0.71193977  0.93908931  0.55792965     0.16300
C1405       C  0.73465236  0.93815532  0.37466256    -0.13300
C1406       C  0.73314857  0.94156928  0.34873460    -0.28500
H1407       H  0.72538051  0.95218458  0.38741459     0.15700
H1408       H  0.74436650  0.92900624  0.33590260     0.16300
C1409       C  0.78222979  0.87698243  0.43445797    -0.13300
C1410       C  0.77833160  0.85177659  0.44055953    -0.28500
H1411       H  0.79476209  0.88909853  0.44645813     0.15700
H1412       H  0.76415633  0.84047909  0.42958662     0.16300
C1413       C  0.74163474  0.94609855  0.43803386    -0.13300
C1414       C  0.76253422  0.93308022  0.42917442    -0.28500
H1415       H  0.72252269  0.94136950  0.43020868     0.15700
H1416       H  0.78146663  0.93606832  0.43822049     0.16300
loop_ 
_geom_bond_atom_site_label_1 
_geom_bond_atom_site_label_2 
_geom_bond_distance 
_geom_bond_site_symmetry_2 
_ccdc_geom_bond_type 
N1            C5   1.357       .  A
N1            C2   1.363       .  A
N1         C1414   1.444       .  S
C2            C3   1.386       .  A
C2         C1405   1.490       .  S
C3            C4   1.372       .  A
C3            H6   1.082       .  S
C4            C5   1.383       .  A
C4            H7   1.082       .  S
C5         C1409   1.483       .  S
N8           C12   1.357       .  A
N8            C9   1.358       .  A
N8         C1401   1.441       .  S
C9           C10   1.384       .  A
C9         C1393   1.482       .  S
C10          C11   1.372       .  A
C10          H13   1.082       .  S
C11          C12   1.385       .  A
C11          H14   1.082       .  S
C12        C1397   1.486       .  S
N15          C19   1.354       .  A
N15          C16   1.359       .  A
N15        C1390   1.438       .  S
C16          C17   1.386       .  A
C16        C1385   1.489       .  S
C17          C18   1.376       .  A
C17          H20   1.082       .  S
C18          C19   1.384       .  A
C18          H21   1.082       .  S
C19        C1381   1.485       .  S
N22          C26   1.355       .  A
N22          C23   1.358       .  A
N22        C1377   1.442       .  S
C23          C24   1.384       .  A
C23        C1370   1.484       .  S
C24          C25   1.373       .  A
C24          H27   1.082       .  S
C25          C26   1.385       .  A
C25          H28   1.082       .  S
C26        C1373   1.481       .  S
O29         Cu37   1.987       .  S
O29          C39   1.273       .  A
O30         Cu37   1.993   1_565  S
O30          C40   1.274       .  A
O31         Cu37   2.031   1_565  S
O31          C41   1.280       .  A
O32         Cu37   2.032       .  S
O32          C42   1.282       .  A
O33         Cu38   1.993   1_545  S
O33          C42   1.274       .  A
O34         Cu38   1.997       .  S
O34          C41   1.276       .  A
O35         Cu38   2.041       .  S
O35          C40   1.283       .  A
O36         Cu38   2.040   1_545  S
O36          C39   1.283       .  A
Cu37        Cu38   2.373   1_545  S
C39        C1378   1.475       .  S
C40        C1413   1.479       .  S
C41        C1402   1.481       .  S
C42        C1389   1.476       .  S
N43          C47   1.355       .  A
N43          C44   1.353       .  A
N43        C1365   1.437       .  S
C44          C45   1.385       .  A
C44        C1357   1.482       .  S
C45          C46   1.375       .  A
C45          H48   1.082       .  S
C46          C47   1.384       .  A
C46          H49   1.082       .  S
C47        C1361   1.481       .  S
N50          C54   1.356       .  A
N50          C51   1.355       .  A
N50        C1353   1.438       .  S
C51          C52   1.385       .  A
C51        C1345   1.485       .  S
C52          C53   1.376       .  A
C52          H55   1.082       .  S
C53          C54   1.384       .  A
C53          H56   1.082       .  S
C54        C1350   1.483       .  S
N57          C61   1.356       .  A
N57          C58   1.360       .  A
N57        C1342   1.441       .  S
C58          C59   1.385       .  A
C58        C1334   1.487       .  S
C59          C60   1.374       .  A
C59          H62   1.082       .  S
C60          C61   1.385       .  A
C60          H63   1.082       .  S
C61        C1337   1.486       .  S
N64          C68   1.357       .  A
N64          C65   1.359       .  A
N64        C1330   1.440       .  S
C65          C66   1.385       .  A
C65        C1321   1.488       .  S
C66          C67   1.375       .  A
C66          H69   1.082       .  S
C67          C68   1.385       .  A
C67          H70   1.082       .  S
C68        C1326   1.488       .  S
O71         Cu79   2.012       .  S
O71          C81   1.279       .  A
O72         Cu79   2.013   1_455  S
O72          C82   1.277       .  A
O73         Cu79   2.013   1_455  S
O73          C83   1.277       .  A
O74         Cu79   2.012       .  S
O74          C84   1.279       .  A
O75         Cu80   2.006   1_655  S
O75          C84   1.276       .  A
O76         Cu80   2.010       .  S
O76          C83   1.279       .  A
O77         Cu80   2.017       .  S
O77          C82   1.280       .  A
O78         Cu80   2.012   1_655  S
O78          C81   1.277       .  A
Cu79        Cu80   2.374   1_655  S
C81        C1354   1.477       .  S
C82        C1341   1.479       .  S
C83        C1329   1.477       .  S
C84        C1366   1.474       .  S
N85          C89   1.354       .  A
N85          C86   1.358       .  A
N85        C1317   1.439       .  S
C86          C87   1.386       .  A
C86        C1309   1.486       .  S
C87          C88   1.376       .  A
C87          H90   1.082       .  S
C88          C89   1.384       .  A
C88          H91   1.082       .  S
C89        C1313   1.484       .  S
N92          C96   1.361       .  A
N92          C93   1.356       .  A
N92        C1305   1.443       .  S
C93          C94   1.385       .  A
C93        C1297   1.485       .  S
C94          C95   1.373       .  A
C94          H97   1.082       .  S
C95          C96   1.385       .  A
C95          H98   1.082       .  S
C96        C1301   1.487       .  S
N99         C103   1.355       .  A
N99         C100   1.359       .  A
N99        C1293   1.441       .  S
C100        C101   1.382       .  A
C100       C1290   1.484       .  S
C101        C102   1.377       .  A
C101        H104   1.082       .  S
C102        C103   1.387       .  A
C102        H105   1.082       .  S
C103       C1285   1.488       .  S
N106        C110   1.355       .  A
N106        C107   1.354       .  A
N106       C1281   1.439       .  S
C107        C108   1.380       .  A
C107       C1277   1.478       .  S
C108        C109   1.379       .  A
C108        H111   1.082       .  S
C109        C110   1.388       .  A
C109        H112   1.081       .  S
C110       C1274   1.491       .  S
O113       Cu121   1.998       .  S
O113        C123   1.275       .  A
O114       Cu121   1.994   1_545  S
O114        C124   1.275       .  A
O115       Cu121   2.040       .  S
O115        C125   1.283       .  A
O116       Cu121   2.038   1_545  S
O116        C126   1.282       .  A
O117       Cu122   1.981   1_545  S
O117        C126   1.273       .  A
O118       Cu122   1.987       .  S
O118        C125   1.273       .  A
O119       Cu122   2.019   1_545  S
O119        C124   1.279       .  A
O120       Cu122   2.027       .  S
O120        C123   1.281       .  A
Cu121      Cu122   2.375       .  S
C123       C1318   1.476       .  S
C124       C1282   1.473       .  S
C125       C1306   1.476       .  S
C126       C1294   1.471       .  S
N127        C131   1.357       .  A
N127        C128   1.355       .  A
N127       C1269   1.437       .  S
C128        C129   1.385       .  A
C128       C1265   1.487       .  S
C129        C130   1.377       .  A
C129        H132   1.082       .  S
C130        C131   1.385       .  A
C130        H133   1.082       .  S
C131       C1261   1.487       .  S
N134        C138   1.358       .  A
N134        C135   1.360       .  A
N134       C1257   1.441       .  S
C135        C136   1.385       .  A
C135       C1253   1.488       .  S
C136        C137   1.375       .  A
C136        H139   1.082       .  S
C137        C138   1.385       .  A
C137        H140   1.082       .  S
C138       C1249   1.489       .  S
N141        C145   1.356       .  A
N141        C142   1.354       .  A
N141       C1245   1.439       .  S
C142        C143   1.385       .  A
C142       C1241   1.484       .  S
C143        C144   1.375       .  A
C143        H146   1.082       .  S
C144        C145   1.384       .  A
C144        H147   1.082       .  S
C145       C1238   1.483       .  S
N148        C152   1.356       .  A
N148        C149   1.361       .  A
N148       C1234   1.441       .  S
C149        C150   1.386       .  A
C149       C1229   1.488       .  S
C150        C151   1.372       .  A
C150        H153   1.082       .  S
C151        C152   1.384       .  A
C151        H154   1.082       .  S
C152       C1226   1.485       .  S
O155       Cu163   2.013       .  S
O155        C165   1.279       .  A
O156       Cu163   2.013   1_545  S
O156        C166   1.277       .  A
O157       Cu163   2.013       .  S
O157        C167   1.277       .  A
O158       Cu163   2.011   1_545  S
O158        C168   1.279       .  A
O159       Cu164   2.010   1_545  S
O159        C168   1.277       .  A
O160       Cu164   2.017       .  S
O160        C167   1.279       .  A
O161       Cu164   2.016   1_545  S
O161        C166   1.279       .  A
O162       Cu164   2.009       .  S
O162        C165   1.277       .  A
Cu163      Cu164   2.374       .  S
C165       C1270   1.475       .  S
C166       C1233   1.479       .  S
C167       C1258   1.480       .  S
C168       C1246   1.476       .  S
N169        C173   1.357       .  A
N169        C170   1.360       .  A
N169       C1221   1.442       .  S
C170        C171   1.385       .  A
C170       C1217   1.487       .  S
C171        C172   1.373       .  A
C171        H174   1.082       .  S
C172        C173   1.384       .  A
C172        H175   1.082       .  S
C173       C1213   1.486       .  S
N176        C180   1.356       .  A
N176        C177   1.354       .  A
N176       C1209   1.438       .  S
C177        C178   1.384       .  A
C177       C1205   1.482       .  S
C178        C179   1.375       .  A
C178        H181   1.082       .  S
C179        C180   1.385       .  A
C179        H182   1.082       .  S
C180       C1201   1.483       .  S
N183        C187   1.358       .  A
N183        C184   1.361       .  A
N183       C1197   1.442       .  S
C184        C185   1.385       .  A
C184       C1193   1.487       .  S
C185        C186   1.373       .  A
C185        H188   1.082       .  S
C186        C187   1.385       .  A
C186        H189   1.082       .  S
C187       C1189   1.489       .  S
N190        C194   1.359       .  A
N190        C191   1.355       .  A
N190       C1185   1.438       .  S
C191        C192   1.385       .  A
C191       C1182   1.488       .  S
C192        C193   1.377       .  A
C192        H195   1.082       .  S
C193        C194   1.386       .  A
C193        H196   1.082       .  S
C194       C1177   1.488       .  S
O197       Cu205   2.008       .  S
O197        C207   1.276       .  A
O198       Cu205   2.015   1_554  S
O198        C208   1.279       .  A
O199       Cu205   2.022       .  S
O199        C209   1.280       .  A
O200       Cu205   2.018   1_554  S
O200        C210   1.278       .  A
O201       Cu206   2.011   1_554  S
O201        C210   1.279       .  A
O202       Cu206   2.011       .  S
O202        C209   1.277       .  A
O203       Cu206   2.018   1_554  S
O203        C208   1.278       .  A
O204       Cu206   2.014       .  S
O204        C207   1.279       .  A
Cu205      Cu206   2.373       .  S
C207       C1210   1.475       .  S
C208       C1198   1.481       .  S
C209       C1222   1.480       .  S
C210       C1186   1.479       .  S
N211        C215   1.354       .  A
N211        C212   1.358       .  A
N211       C1173   1.439       .  S
C212        C213   1.386       .  A
C212       C1170   1.485       .  S
C213        C214   1.375       .  A
C213        H216   1.082       .  S
C214        C215   1.385       .  A
C214        H217   1.082       .  S
C215       C1166   1.484       .  S
N218        C222   1.353       .  A
N218        C219   1.356       .  A
N218       C1161   1.438       .  S
C219        C220   1.386       .  A
C219       C1157   1.484       .  S
C220        C221   1.377       .  A
C220        H223   1.082       .  S
C221        C222   1.384       .  A
C221        H224   1.082       .  S
C222       C1153   1.483       .  S
N225        C229   1.362       .  A
N225        C226   1.358       .  A
N225       C1149   1.443       .  S
C226        C227   1.384       .  A
C226       C1146   1.487       .  S
C227        C228   1.373       .  A
C227        H230   1.082       .  S
C228        C229   1.385       .  A
C228        H231   1.082       .  S
C229       C1141   1.489       .  S
N232        C236   1.360       .  A
N232        C233   1.356       .  A
N232       C1137   1.442       .  S
C233        C234   1.385       .  A
C233       C1134   1.487       .  S
C234        C235   1.374       .  A
C234        H237   1.082       .  S
C235        C236   1.385       .  A
C235        H238   1.082       .  S
C236       C1129   1.486       .  S
O239       Cu247   2.015       .  S
O239        C249   1.277       .  A
O240       Cu247   2.024   1_545  S
O240        C250   1.280       .  A
O241       Cu247   2.018       .  S
O241        C251   1.278       .  A
O242       Cu247   2.024   1_545  S
O242        C252   1.280       .  A
O243       Cu248   2.013   1_545  S
O243        C252   1.277       .  A
O244       Cu248   2.012       .  S
O244        C251   1.279       .  A
O245       Cu248   2.015   1_545  S
O245        C250   1.277       .  A
O246       Cu248   2.012       .  S
O246        C249   1.279       .  A
Cu247      Cu248   2.373       .  S
C249       C1162   1.477       .  S
C250       C1150   1.482       .  S
C251       C1174   1.479       .  S
C252       C1138   1.481       .  S
N253        C257   1.355       .  A
N253        C254   1.360       .  A
N253       C1125   1.440       .  S
C254        C255   1.386       .  A
C254       C1117   1.487       .  S
C255        C256   1.375       .  A
C255        H258   1.082       .  S
C256        C257   1.384       .  A
C256        H259   1.082       .  S
C257       C1121   1.485       .  S
N260        C264   1.357       .  A
N260        C261   1.362       .  A
N260       C1113   1.443       .  S
C261        C262   1.386       .  A
C261       C1105   1.489       .  S
C262        C263   1.373       .  A
C262        H265   1.082       .  S
C263        C264   1.383       .  A
C263        H266   1.082       .  S
C264       C1109   1.486       .  S
N267        C271   1.354       .  A
N267        C268   1.356       .  A
N267       C1101   1.437       .  S
C268        C269   1.385       .  A
C268       C1097   1.484       .  S
C269        C270   1.376       .  A
C269        H272   1.082       .  S
C270        C271   1.385       .  A
C270        H273   1.082       .  S
C271       C1093   1.485       .  S
N274        C278   1.354       .  A
N274        C275   1.357       .  A
N274       C1089   1.437       .  S
C275        C276   1.385       .  A
C275       C1086   1.485       .  S
C276        C277   1.376       .  A
C276        H279   1.082       .  S
C277        C278   1.386       .  A
C277        H280   1.082       .  S
C278       C1081   1.487       .  S
O281       Cu289   2.010       .  S
O281        C291   1.279       .  A
O282       Cu289   2.013   1_556  S
O282        C292   1.277       .  A
O283       Cu289   2.008       .  S
O283        C293   1.278       .  A
O284       Cu289   2.013   1_556  S
O284        C294   1.277       .  A
O285       Cu290   2.024       .  S
O285        C294   1.280       .  A
O286       Cu290   2.015   1_554  S
O286        C293   1.277       .  A
O287       Cu290   2.015       .  S
O287        C292   1.279       .  A
O288       Cu290   2.009   1_554  S
O288        C291   1.277       .  A
Cu289      Cu290   2.374   1_554  S
C291       C1090   1.475       .  S
C292       C1126   1.479       .  S
C293       C1102   1.476       .  S
C294       C1114   1.482       .  S
N295        C299   1.354       .  A
N295        C296   1.357       .  A
N295       C1077   1.438       .  S
C296        C297   1.385       .  A
C296       C1073   1.485       .  S
C297        C298   1.376       .  A
C297        H300   1.082       .  S
C298        C299   1.385       .  A
C298        H301   1.082       .  S
C299       C1069   1.485       .  S
N302        C306   1.355       .  A
N302        C303   1.358       .  A
N302       C1065   1.438       .  S
C303        C304   1.386       .  A
C303       C1061   1.489       .  S
C304        C305   1.377       .  A
C304        H307   1.082       .  S
C305        C306   1.385       .  A
C305        H308   1.082       .  S
C306       C1057   1.488       .  S
N309        C313   1.361       .  A
N309        C310   1.358       .  A
N309       C1054   1.442       .  S
C310        C311   1.384       .  A
C310       C1049   1.487       .  S
C311        C312   1.374       .  A
C311        H314   1.082       .  S
C312        C313   1.385       .  A
C312        H315   1.082       .  S
C313       C1045   1.489       .  S
N316        C320   1.360       .  A
N316        C317   1.358       .  A
N316       C1041   1.441       .  S
C317        C318   1.386       .  A
C317       C1038   1.490       .  S
C318        C319   1.374       .  A
C318        H321   1.082       .  S
C319        C320   1.384       .  A
C319        H322   1.082       .  S
C320       C1033   1.486       .  S
O323       Cu331   2.016   1_554  S
O323        C333   1.279       .  A
O324       Cu331   2.010       .  S
O324        C334   1.277       .  A
O325       Cu331   2.018   1_554  S
O325        C335   1.279       .  A
O326       Cu331   2.012       .  S
O326        C336   1.277       .  A
O327       Cu332   2.014       .  S
O327        C336   1.279       .  A
O328       Cu332   2.014   1_554  S
O328        C335   1.278       .  A
O329       Cu332   2.011       .  S
O329        C334   1.279       .  A
O330       Cu332   2.013   1_554  S
O330        C333   1.277       .  A
Cu331      Cu332   2.374       .  S
C333       C1042   1.478       .  S
C334       C1078   1.475       .  S
C335       C1053   1.480       .  S
C336       C1066   1.477       .  S
N337        C341   1.355       .  A
N337        C338   1.362       .  A
N337       C1029   1.441       .  S
C338        C339   1.387       .  A
C338       C1025   1.490       .  S
C339        C340   1.372       .  A
C339        H342   1.082       .  S
C340        C341   1.383       .  A
C340        H343   1.082       .  S
C341       C1021   1.483       .  S
N344        C348   1.359       .  A
N344        C345   1.356       .  A
N344       C1017   1.441       .  S
C345        C346   1.385       .  A
C345       C1014   1.486       .  S
C346        C347   1.375       .  A
C346        H349   1.082       .  S
C347        C348   1.384       .  A
C347        H350   1.082       .  S
C348       C1009   1.485       .  S
N351        C355   1.357       .  A
N351        C352   1.359       .  A
N351       C1005   1.440       .  S
C352        C353   1.385       .  A
C352       C1001   1.488       .  S
C353        C354   1.375       .  A
C353        H356   1.082       .  S
C354        C355   1.384       .  A
C354        H357   1.082       .  S
C355        C997   1.487       .  S
N358        C362   1.355       .  A
N358        C359   1.359       .  A
N358        C993   1.440       .  S
C359        C360   1.386       .  A
C359        C990   1.487       .  S
C360        C361   1.373       .  A
C360        H363   1.082       .  S
C361        C362   1.384       .  A
C361        H364   1.082       .  S
C362        C985   1.482       .  S
O365       Cu373   2.002       .  S
O365        C375   1.277       .  A
O366       Cu373   1.996   1_655  S
O366        C376   1.274       .  A
O367       Cu373   2.032       .  S
O367        C377   1.282       .  A
O368       Cu373   2.035   1_655  S
O368        C378   1.282       .  A
O369       Cu374   1.994       .  S
O369        C378   1.274       .  A
O370       Cu374   1.993   1_455  S
O370        C377   1.274       .  A
O371       Cu374   2.032       .  S
O371        C376   1.282       .  A
O372       Cu374   2.030   1_455  S
O372        C375   1.280       .  A
Cu373      Cu374   2.374   1_455  S
C375       C1006   1.481       .  S
C376       C1018   1.476       .  S
C377        C994   1.475       .  S
C378       C1030   1.477       .  S
N379        C383   1.360       .  A
N379        C380   1.356       .  A
N379        C981   1.439       .  S
C380        C381   1.385       .  A
C380        C977   1.488       .  S
C381        C382   1.375       .  A
C381        H384   1.082       .  S
C382        C383   1.385       .  A
C382        H385   1.082       .  S
C383        C973   1.490       .  S
N386        C390   1.356       .  A
N386        C387   1.360       .  A
N386        C969   1.442       .  S
C387        C388   1.386       .  A
C387        C965   1.488       .  S
C388        C389   1.373       .  A
C388        H391   1.082       .  S
C389        C390   1.384       .  A
C389        H392   1.082       .  S
C390        C961   1.485       .  S
N393        C397   1.358       .  A
N393        C394   1.357       .  A
N393        C958   1.441       .  S
C394        C395   1.386       .  A
C394        C953   1.487       .  S
C395        C396   1.374       .  A
C395        H398   1.082       .  S
C396        C397   1.384       .  A
C396        H399   1.082       .  S
C397        C949   1.484       .  S
N400        C404   1.361       .  A
N400        C401   1.355       .  A
N400        C945   1.441       .  S
C401        C402   1.383       .  A
C401        C941   1.484       .  S
C402        C403   1.373       .  A
C402        H405   1.082       .  S
C403        C404   1.386       .  A
C403        H406   1.082       .  S
C404        C937   1.489       .  S
O407       Cu415   1.993   1_554  S
O407        C417   1.274       .  A
O408       Cu415   1.988       .  S
O408        C418   1.273       .  A
O409       Cu415   2.033   1_554  S
O409        C419   1.281       .  A
O410       Cu415   2.037       .  S
O410        C420   1.282       .  A
O411       Cu416   1.995       .  S
O411        C420   1.274       .  A
O412       Cu416   2.000   1_554  S
O412        C419   1.276       .  A
O413       Cu416   2.031       .  S
O413        C418   1.282       .  A
O414       Cu416   2.035   1_554  S
O414        C417   1.282       .  A
Cu415      Cu416   2.374       .  S
C417        C946   1.477       .  S
C418        C982   1.473       .  S
C419        C957   1.482       .  S
C420        C970   1.478       .  S
N421        C425   1.360       .  A
N421        C422   1.356       .  A
N421        C933   1.442       .  S
C422        C423   1.384       .  A
C422        C925   1.485       .  S
C423        C424   1.374       .  A
C423        H426   1.082       .  S
C424        C425   1.385       .  A
C424        H427   1.082       .  S
C425        C929   1.487       .  S
N428        C432   1.356       .  A
N428        C429   1.358       .  A
N428        C921   1.440       .  S
C429        C430   1.385       .  A
C429        C917   1.487       .  S
C430        C431   1.375       .  A
C430        H433   1.082       .  S
C431        C432   1.385       .  A
C431        H434   1.082       .  S
C432        C914   1.487       .  S
N435        C439   1.355       .  A
N435        C436   1.359       .  A
N435        C910   1.441       .  S
C436        C437   1.386       .  A
C436        C906   1.487       .  S
C437        C438   1.373       .  A
C437        H440   1.082       .  S
C438        C439   1.384       .  A
C438        H441   1.082       .  S
C439        C901   1.482       .  S
N442        C446   1.356       .  A
N442        C443   1.359       .  A
N442        C897   1.441       .  S
C443        C444   1.385       .  A
C443        C894   1.485       .  S
C444        C445   1.372       .  A
C444        H447   1.082       .  S
C445        C446   1.384       .  A
C445        H448   1.082       .  S
C446        C889   1.485       .  S
O449       Cu457   2.020   1_655  S
O449        C459   1.279       .  A
O450       Cu457   2.015       .  S
O450        C460   1.279       .  A
O451       Cu457   2.019   1_655  S
O451        C461   1.279       .  A
O452       Cu457   2.020       .  S
O452        C462   1.280       .  A
O453       Cu458   2.007       .  S
O453        C462   1.277       .  A
O454       Cu458   2.006   1_655  S
O454        C461   1.276       .  A
O455       Cu458   2.013       .  S
O455        C460   1.277       .  A
O456       Cu458   2.014   1_655  S
O456        C459   1.278       .  A
Cu457      Cu458   2.374       .  S
C459        C934   1.480       .  S
C460        C898   1.479       .  S
C461        C922   1.475       .  S
C462        C909   1.478       .  S
N463        C467   1.357       .  A
N463        C464   1.361       .  A
N463        C885   1.444       .  S
C464        C465   1.385       .  A
C464        C877   1.487       .  S
C465        C466   1.373       .  A
C465        H468   1.082       .  S
C466        C467   1.384       .  A
C466        H469   1.082       .  S
C467        C881   1.484       .  S
N470        C474   1.355       .  A
N470        C471   1.356       .  A
N470        C873   1.438       .  S
C471        C472   1.384       .  A
C471        C865   1.484       .  S
C472        C473   1.377       .  A
C472        H475   1.082       .  S
C473        C474   1.386       .  A
C473        H476   1.082       .  S
C474        C869   1.488       .  S
N477        C481   1.361       .  A
N477        C478   1.354       .  A
N477        C862   1.440       .  S
C478        C479   1.383       .  A
C478        C853   1.487       .  S
C479        C480   1.376       .  A
C479        H482   1.082       .  S
C480        C481   1.386       .  A
C480        H483   1.082       .  S
C481        C857   1.490       .  S
N484        C488   1.354       .  A
N484        C485   1.357       .  A
N484        C850   1.440       .  S
C485        C486   1.385       .  A
C485        C842   1.484       .  S
C486        C487   1.376       .  A
C486        H489   1.082       .  S
C487        C488   1.385       .  A
C487        H490   1.082       .  S
C488        C845   1.483       .  S
O491       Cu499   2.001   1_455  S
O491        C501   1.275       .  A
O492       Cu499   2.000       .  S
O492        C502   1.277       .  A
O493       Cu499   2.035       .  S
O493        C503   1.282       .  A
O494       Cu499   2.031   1_455  S
O494        C504   1.282       .  A
O495       Cu500   1.996       .  S
O495        C504   1.274       .  A
O496       Cu500   2.000   1_655  S
O496        C503   1.275       .  A
O497       Cu500   2.023   1_655  S
O497        C502   1.279       .  A
O498       Cu500   2.025       .  S
O498        C501   1.281       .  A
Cu499      Cu500   2.374   1_655  S
C501        C861   1.478       .  S
C502        C874   1.478       .  S
C503        C886   1.479       .  S
C504        C849   1.476       .  S
O505       Cu513   2.026       .  S
O505        C515   1.279       .  A
O506       Cu513   2.027   1_655  S
O506        C516   1.280       .  A
O507       Cu513   2.029   1_655  S
O507        C517   1.280       .  A
O508       Cu513   2.023       .  S
O508        C518   1.279       .  A
O509       Cu514   1.995       .  S
O509        C518   1.275       .  A
O510       Cu514   1.997   1_655  S
O510        C517   1.275       .  A
O511       Cu514   2.002   1_655  S
O511        C516   1.276       .  A
O512       Cu514   2.003       .  S
O512        C515   1.277       .  A
Cu513      Cu514   2.376       .  S
C515        C854   1.476       .  S
C516        C926   1.474       .  S
C517        C878   1.473       .  S
C518        C902   1.470       .  S
O519       Cu527   2.039       .  S
O519        C529   1.281       .  A
O520       Cu527   2.036       .  S
O520        C530   1.281       .  A
O521       Cu527   2.010       .  S
O521        C531   1.278       .  A
O522       Cu527   2.016       .  S
O522        C532   1.278       .  A
O523       Cu528   2.007       .  S
O523        C532   1.277       .  A
O524       Cu528   2.005       .  S
O524        C531   1.277       .  A
O525       Cu528   1.997       .  S
O525        C530   1.275       .  A
O526       Cu528   1.999       .  S
O526        C529   1.275       .  A
Cu527      Cu528   2.375       .  S
C529       C1386   1.476       .  S
C530        C870   1.476       .  S
C531       C1374   1.471       .  S
C532        C882   1.473       .  S
O533       Cu541   2.012       .  S
O533        C543   1.278       .  A
O534       Cu541   2.007       .  S
O534        C544   1.277       .  A
O535       Cu541   2.023       .  S
O535        C545   1.279       .  A
O536       Cu541   2.007       .  S
O536        C546   1.278       .  A
O537       Cu542   2.023       .  S
O537        C546   1.279       .  A
O538       Cu542   2.017       .  S
O538        C545   1.278       .  A
O539       Cu542   2.030       .  S
O539        C544   1.280       .  A
O540       Cu542   2.008       .  S
O540        C543   1.278       .  A
Cu541      Cu542   2.375       .  S
C543        C846   1.473       .  S
C544       C1289   1.477       .  S
C545        C858   1.479       .  S
C546       C1278   1.476       .  S
O547       Cu555   2.018       .  S
O547        C557   1.279       .  A
O548       Cu555   2.023       .  S
O548        C558   1.279       .  A
O549       Cu555   2.034       .  S
O549        C559   1.281       .  A
O550       Cu555   2.031       .  S
O550        C560   1.281       .  A
O551       Cu556   1.995       .  S
O551        C560   1.275       .  A
O552       Cu556   1.995       .  S
O552        C559   1.275       .  A
O553       Cu556   2.007       .  S
O553        C558   1.277       .  A
O554       Cu556   2.005       .  S
O554        C557   1.277       .  A
Cu555      Cu556   2.375       .  S
C557        C942   1.473       .  S
C558        C930   1.475       .  S
C559        C954   1.473       .  S
C560        C918   1.473       .  S
O561       Cu569   2.018       .  S
O561        C571   1.278       .  A
O562       Cu569   2.021       .  S
O562        C572   1.279       .  A
O563       Cu569   2.032       .  S
O563        C573   1.281       .  A
O564       Cu569   2.036       .  S
O564        C574   1.281       .  A
O565       Cu570   1.993       .  S
O565        C574   1.275       .  A
O566       Cu570   1.993       .  S
O566        C573   1.275       .  A
O567       Cu570   2.010       .  S
O567        C572   1.278       .  A
O568       Cu570   2.006       .  S
O568        C571   1.277       .  A
Cu569      Cu570   2.375       .  S
C571        C893   1.472       .  S
C572       C1050   1.476       .  S
C573        C905   1.472       .  S
C574       C1037   1.475       .  S
O575       Cu583   2.005   1_554  S
O575        C585   1.277       .  A
O576       Cu583   2.008       .  S
O576        C586   1.277       .  A
O577       Cu583   1.995       .  S
O577        C587   1.275       .  A
O578       Cu583   1.991   1_554  S
O578        C588   1.274       .  A
O579       Cu584   2.033   1_554  S
O579        C588   1.281       .  A
O580       Cu584   2.039       .  S
O580        C587   1.281       .  A
O581       Cu584   2.028       .  S
O581        C586   1.279       .  A
O582       Cu584   2.021   1_554  S
O582        C585   1.279       .  A
Cu583      Cu584   2.375       .  S
C585        C950   1.473       .  S
C586       C1106   1.476       .  S
C587        C974   1.475       .  S
C588       C1082   1.473       .  S
O589       Cu597   2.026       .  S
O589        C599   1.279       .  A
O590       Cu597   2.022       .  S
O590        C600   1.279       .  A
O591       Cu597   2.033       .  S
O591        C601   1.281       .  A
O592       Cu597   2.035       .  S
O592        C602   1.281       .  A
O593       Cu598   1.998       .  S
O593        C602   1.275       .  A
O594       Cu598   1.998       .  S
O594        C601   1.275       .  A
O595       Cu598   2.002       .  S
O595        C600   1.276       .  A
O596       Cu598   2.004       .  S
O596        C599   1.277       .  A
Cu597      Cu598   2.375       .  S
C599        C978   1.475       .  S
C600       C1013   1.474       .  S
C601        C966   1.473       .  S
C602       C1026   1.474       .  S
O603       Cu611   2.023       .  S
O603        C613   1.279       .  A
O604       Cu611   2.017   1_655  S
O604        C614   1.278       .  A
O605       Cu611   2.021   1_655  S
O605        C615   1.279       .  A
O606       Cu611   2.025       .  S
O606        C616   1.280       .  A
O607       Cu612   1.998   1_455  S
O607        C616   1.275       .  A
O608       Cu612   1.996       .  S
O608        C615   1.275       .  A
O609       Cu612   2.011       .  S
O609        C614   1.278       .  A
O610       Cu612   2.009   1_455  S
O610        C613   1.277       .  A
Cu611      Cu612   2.376   1_455  S
C613        C998   1.476       .  S
C614        C866   1.475       .  S
C615       C1022   1.470       .  S
C616        C841   1.472       .  S
O617       Cu625   2.028       .  S
O617        C627   1.279       .  A
O618       Cu625   2.032       .  S
O618        C628   1.280       .  A
O619       Cu625   2.033       .  S
O619        C629   1.281       .  A
O620       Cu625   2.032       .  S
O620        C630   1.281       .  A
O621       Cu626   1.995       .  S
O621        C630   1.275       .  A
O622       Cu626   1.992       .  S
O622        C629   1.274       .  A
O623       Cu626   2.009       .  S
O623        C628   1.277       .  A
O624       Cu626   2.008       .  S
O624        C627   1.277       .  A
Cu625      Cu626   2.375       .  S
C627       C1002   1.477       .  S
C628       C1062   1.477       .  S
C629        C989   1.471       .  S
C630       C1074   1.473       .  S
O631       Cu639   1.997       .  S
O631        C641   1.275       .  A
O632       Cu639   1.998   1_554  S
O632        C642   1.275       .  A
O633       Cu639   2.007   1_554  S
O633        C643   1.277       .  A
O634       Cu639   2.007       .  S
O634        C644   1.277       .  A
O635       Cu640   2.027       .  S
O635        C644   1.280       .  A
O636       Cu640   2.029   1_554  S
O636        C643   1.280       .  A
O637       Cu640   2.027   1_554  S
O637        C642   1.280       .  A
O638       Cu640   2.027       .  S
O638        C641   1.280       .  A
Cu639      Cu640   2.375       .  S
C641       C1070   1.473       .  S
C642       C1094   1.473       .  S
C643       C1046   1.477       .  S
C644       C1118   1.475       .  S
O645       Cu653   2.006       .  S
O645        C655   1.277       .  A
O646       Cu653   2.007       .  S
O646        C656   1.277       .  A
O647       Cu653   1.997       .  S
O647        C657   1.275       .  A
O648       Cu653   1.998       .  S
O648        C658   1.275       .  A
O649       Cu654   2.029       .  S
O649        C658   1.280       .  A
O650       Cu654   2.029       .  S
O650        C657   1.280       .  A
O651       Cu654   2.020       .  S
O651        C656   1.279       .  A
O652       Cu654   2.021       .  S
O652        C655   1.279       .  A
Cu653      Cu654   2.375       .  S
C655       C1110   1.474       .  S
C656       C1145   1.475       .  S
C657       C1122   1.474       .  S
C658       C1133   1.474       .  S
O659       Cu667   2.001       .  S
O659        C669   1.276       .  A
O660       Cu667   2.000       .  S
O660        C670   1.276       .  A
O661       Cu667   2.000       .  S
O661        C671   1.276       .  A
O662       Cu667   1.998       .  S
O662        C672   1.276       .  A
O663       Cu668   2.023       .  S
O663        C672   1.280       .  A
O664       Cu668   2.029       .  S
O664        C671   1.280       .  A
O665       Cu668   2.029       .  S
O665        C670   1.280       .  A
O666       Cu668   2.027       .  S
O666        C669   1.280       .  A
Cu667      Cu668   2.376       .  S
C669       C1098   1.473       .  S
C670       C1230   1.473       .  S
C671       C1085   1.473       .  S
C672       C1242   1.472       .  S
O673       Cu681   2.005       .  S
O673        C683   1.277       .  A
O674       Cu681   2.008   1_545  S
O674        C684   1.277       .  A
O675       Cu681   1.995   1_545  S
O675        C685   1.275       .  A
O676       Cu681   1.994       .  S
O676        C686   1.275       .  A
O677       Cu682   2.028       .  S
O677        C686   1.280       .  A
O678       Cu682   2.035   1_545  S
O678        C685   1.281       .  A
O679       Cu682   2.029   1_545  S
O679        C684   1.280       .  A
O680       Cu682   2.020       .  S
O680        C683   1.279       .  A
Cu681      Cu682   2.375       .  S
C683       C1298   1.473       .  S
C684       C1142   1.477       .  S
C685       C1273   1.476       .  S
C686       C1165   1.472       .  S
O687       Cu695   2.004       .  S
O687        C697   1.276       .  A
O688       Cu695   2.004       .  S
O688        C698   1.277       .  A
O689       Cu695   2.003       .  S
O689        C699   1.276       .  A
O690       Cu695   1.999       .  S
O690        C700   1.276       .  A
O691       Cu696   2.019       .  S
O691        C700   1.279       .  A
O692       Cu696   2.024       .  S
O692        C699   1.279       .  A
O693       Cu696   2.029       .  S
O693        C698   1.280       .  A
O694       Cu696   2.023       .  S
O694        C697   1.279       .  A
Cu695      Cu696   2.376       .  S
C697       C1158   1.474       .  S
C698       C1218   1.474       .  S
C699       C1169   1.473       .  S
C700       C1206   1.471       .  S
O701       Cu709   2.032       .  S
O701        C711   1.280       .  A
O702       Cu709   2.032   1_554  S
O702        C712   1.280       .  A
O703       Cu709   2.028   1_554  S
O703        C713   1.280       .  A
O704       Cu709   2.025       .  S
O704        C714   1.280       .  A
O705       Cu710   1.999       .  S
O705        C714   1.276       .  A
O706       Cu710   2.002   1_554  S
O706        C713   1.276       .  A
O707       Cu710   1.998   1_554  S
O707        C712   1.276       .  A
O708       Cu710   2.000       .  S
O708        C711   1.276       .  A
Cu709      Cu710   2.375       .  S
C711       C1058   1.476       .  S
C712       C1190   1.475       .  S
C713       C1034   1.474       .  S
C714       C1214   1.473       .  S
O715       Cu723   2.004       .  S
O715        C725   1.276       .  A
O716       Cu723   2.003       .  S
O716        C726   1.276       .  A
O717       Cu723   2.008       .  S
O717        C727   1.277       .  A
O718       Cu723   2.008       .  S
O718        C728   1.277       .  A
O719       Cu724   2.026       .  S
O719        C728   1.279       .  A
O720       Cu724   2.025       .  S
O720        C727   1.279       .  A
O721       Cu724   2.029       .  S
O721        C726   1.280       .  A
O722       Cu724   2.030       .  S
O722        C725   1.280       .  A
Cu723      Cu724   2.374       .  S
C725       C1181   1.477       .  S
C726       C1266   1.476       .  S
C727       C1194   1.475       .  S
C728       C1254   1.476       .  S
O729       Cu737   2.026       .  S
O729        C739   1.280       .  A
O730       Cu737   2.022   1_545  S
O730        C740   1.279       .  A
O731       Cu737   2.027   1_545  S
O731        C741   1.280       .  A
O732       Cu737   2.031       .  S
O732        C742   1.280       .  A
O733       Cu738   2.005       .  S
O733        C742   1.276       .  A
O734       Cu738   2.004   1_545  S
O734        C741   1.277       .  A
O735       Cu738   2.001   1_545  S
O735        C740   1.276       .  A
O736       Cu738   2.002       .  S
O736        C739   1.276       .  A
Cu737      Cu738   2.375       .  S
C739       C1310   1.473       .  S
C740       C1237   1.472       .  S
C741       C1286   1.477       .  S
C742       C1262   1.476       .  S
O743       Cu751   1.998       .  S
O743        C753   1.275       .  A
O744       Cu751   1.997       .  S
O744        C754   1.275       .  A
O745       Cu751   2.002       .  S
O745        C755   1.276       .  A
O746       Cu751   2.002       .  S
O746        C756   1.276       .  A
O747       Cu752   2.026       .  S
O747        C756   1.280       .  A
O748       Cu752   2.020       .  S
O748        C755   1.279       .  A
O749       Cu752   2.025       .  S
O749        C754   1.280       .  A
O750       Cu752   2.028       .  S
O750        C753   1.280       .  A
Cu751      Cu752   2.375       .  S
C753       C1302   1.473       .  S
C754       C1338   1.473       .  S
C755       C1314   1.473       .  S
C756       C1325   1.475       .  S
O757       Cu765   2.029   1_455  S
O757        C767   1.280       .  A
O758       Cu765   2.027       .  S
O758        C768   1.280       .  A
O759       Cu765   2.027       .  S
O759        C769   1.280       .  A
O760       Cu765   2.030   1_455  S
O760        C770   1.280       .  A
O761       Cu766   2.002   1_455  S
O761        C770   1.276       .  A
O762       Cu766   2.002       .  S
O762        C769   1.276       .  A
O763       Cu766   1.989       .  S
O763        C768   1.274       .  A
O764       Cu766   1.990   1_455  S
O764        C767   1.274       .  A
Cu765      Cu766   2.376       .  S
C767        C890   1.470       .  S
C768       C1358   1.469       .  S
C769        C913   1.474       .  S
C770       C1333   1.474       .  S
O771       Cu779   2.004       .  S
O771        C781   1.277       .  A
O772       Cu779   2.006       .  S
O772        C782   1.277       .  A
O773       Cu779   1.991       .  S
O773        C783   1.274       .  A
O774       Cu779   1.992       .  S
O774        C784   1.274       .  A
O775       Cu780   2.025       .  S
O775        C784   1.280       .  A
O776       Cu780   2.030       .  S
O776        C783   1.280       .  A
O777       Cu780   2.020       .  S
O777        C782   1.279       .  A
O778       Cu780   2.018       .  S
O778        C781   1.278       .  A
Cu779      Cu780   2.376       .  S
C781       C1410   1.472       .  S
C782       C1349   1.473       .  S
C783       C1398   1.470       .  S
C784       C1362   1.469       .  S
O785       Cu793   2.023   1_545  S
O785        C795   1.279       .  A
O786       Cu793   2.031       .  S
O786        C796   1.280       .  A
O787       Cu793   2.032       .  S
O787        C797   1.281       .  A
O788       Cu793   2.026   1_545  S
O788        C798   1.280       .  A
O789       Cu794   1.995   1_545  S
O789        C798   1.275       .  A
O790       Cu794   1.998       .  S
O790        C797   1.275       .  A
O791       Cu794   2.004       .  S
O791        C796   1.276       .  A
O792       Cu794   2.003   1_545  S
O792        C795   1.276       .  A
Cu793      Cu794   2.375       .  S
C795       C1382   1.475       .  S
C796       C1250   1.477       .  S
C797       C1406   1.473       .  S
C798       C1225   1.472       .  S
O799       Cu807   2.028       .  S
O799        C809   1.280       .  A
O800       Cu807   2.030   1_655  S
O800        C810   1.280       .  A
O801       Cu807   2.023   1_655  S
O801        C811   1.279       .  A
O802       Cu807   2.020       .  S
O802        C812   1.279       .  A
O803       Cu808   1.998       .  S
O803        C812   1.276       .  A
O804       Cu808   2.000   1_655  S
O804        C811   1.276       .  A
O805       Cu808   2.003   1_655  S
O805        C810   1.276       .  A
O806       Cu808   2.004       .  S
O806        C809   1.276       .  A
Cu807      Cu808   2.375       .  S
C809       C1322   1.475       .  S
C810       C1010   1.474       .  S
C811       C1346   1.473       .  S
C812        C986   1.470       .  S
O813       Cu821   2.020   1_545  S
O813        C823   1.279       .  A
O814       Cu821   2.013       .  S
O814        C824   1.278       .  A
O815       Cu821   2.022       .  S
O815        C825   1.280       .  A
O816       Cu821   2.026   1_545  S
O816        C826   1.280       .  A
O817       Cu822   1.996   1_545  S
O817        C826   1.275       .  A
O818       Cu822   1.999       .  S
O818        C825   1.276       .  A
O819       Cu822   2.006       .  S
O819        C824   1.277       .  A
O820       Cu822   2.010   1_545  S
O820        C823   1.277       .  A
Cu821      Cu822   2.376       .  S
C823       C1130   1.474       .  S
C824       C1394   1.471       .  S
C825       C1154   1.473       .  S
C826       C1369   1.470       .  S
O827       Cu835   2.025       .  S
O827        C837   1.280       .  A
O828       Cu835   2.033   1_554  S
O828        C838   1.281       .  A
O829       Cu835   2.022   1_554  S
O829        C839   1.279       .  A
O830       Cu835   2.015       .  S
O830        C840   1.278       .  A
O831       Cu836   2.008       .  S
O831        C840   1.277       .  A
O832       Cu836   2.013   1_554  S
O832        C839   1.278       .  A
O833       Cu836   1.999   1_554  S
O833        C838   1.275       .  A
O834       Cu836   1.997       .  S
O834        C837   1.275       .  A
Cu835      Cu836   2.375       .  S
C837       C1202   1.471       .  S
C838        C938   1.474       .  S
C839       C1178   1.477       .  S
C840        C962   1.473       .  S
C841        C842   1.343       .  D
C841        H843   1.087       .  S
C842        H844   1.085       .  S
C845        C846   1.345       .  D
C845        H847   1.086       .  S
C846        H848   1.086       .  S
C849        C850   1.339       .  D
C849        H851   1.087       .  S
C850        H852   1.086       .  S
C853        C854   1.345       .  D
C853        H855   1.086       .  S
C854        H856   1.087       .  S
C857        C858   1.349       .  D
C857        H859   1.084       .  S
C858        H860   1.086       .  S
C861        C862   1.340       .  D
C861        H863   1.086       .  S
C862        H864   1.086       .  S
C865        C866   1.345       .  D
C865        H867   1.085       .  S
C866        H868   1.087       .  S
C869        C870   1.344       .  D
C869        H871   1.086       .  S
C870        H872   1.087       .  S
C873        C874   1.344       .  D
C873        H875   1.086       .  S
C874        H876   1.086       .  S
C877        C878   1.344       .  D
C877        H879   1.084       .  S
C878        H880   1.087       .  S
C881        C882   1.346       .  D
C881        H883   1.086       .  S
C882        H884   1.086       .  S
C885        C886   1.341       .  D
C885        H887   1.086       .  S
C886        H888   1.086       .  S
C889        C890   1.343       .  D
C889        H891   1.086       .  S
C890        H892   1.087       .  S
C893        C894   1.346       .  D
C893        H895   1.086       .  S
C894        H896   1.085       .  S
C897        C898   1.343       .  D
C897        H899   1.086       .  S
C898        H900   1.086       .  S
C901        C902   1.343       .  D
C901        H903   1.086       .  S
C902        H904   1.087       .  S
C905        C906   1.345       .  D
C905        H907   1.087       .  S
C906        H908   1.084       .  S
C909        C910   1.342       .  D
C909        H911   1.086       .  S
C910        H912   1.086       .  S
C913        C914   1.345       .  D
C913        H915   1.086       .  S
C914        H916   1.086       .  S
C917        C918   1.343       .  D
C917        H919   1.084       .  S
C918        H920   1.087       .  S
C921        C922   1.342       .  D
C921        H923   1.086       .  S
C922        H924   1.086       .  S
C925        C926   1.345       .  D
C925        H927   1.086       .  S
C926        H928   1.087       .  S
C929        C930   1.346       .  D
C929        H931   1.084       .  S
C930        H932   1.087       .  S
C933        C934   1.343       .  D
C933        H935   1.086       .  S
C934        H936   1.086       .  S
C937        C938   1.346       .  D
C937        H939   1.084       .  S
C938        H940   1.087       .  S
C941        C942   1.345       .  D
C941        H943   1.086       .  S
C942        H944   1.087       .  S
C945        C946   1.339       .  D
C945        H947   1.086       .  S
C946        H948   1.086       .  S
C949        C950   1.345       .  D
C949        H951   1.085       .  S
C950        H952   1.087       .  S
C953        C954   1.345       .  D
C953        H955   1.086       .  S
C954        H956   1.086       .  S
C957        C958   1.347       .  D
C957        H959   1.086       .  S
C958        H960   1.086       .  S
C961        C962   1.346       .  D
C961        H963   1.086       .  S
C962        H964   1.086       .  S
C965        C966   1.345       .  D
C965        H967   1.084       .  S
C966        H968   1.087       .  S
C969        C970   1.339       .  D
C969        H971   1.086       .  S
C970        H972   1.086       .  S
C973        C974   1.345       .  D
C973        H975   1.084       .  S
C974        H976   1.087       .  S
C977        C978   1.346       .  D
C977        H979   1.086       .  S
C978        H980   1.086       .  S
C981        C982   1.338       .  D
C981        H983   1.086       .  S
C982        H984   1.087       .  S
C985        C986   1.344       .  D
C985        H987   1.086       .  S
C986        H988   1.087       .  S
C989        C990   1.344       .  D
C989        H991   1.086       .  S
C990        H992   1.084       .  S
C993        C994   1.339       .  D
C993        H995   1.086       .  S
C994        H996   1.086       .  S
C997        C998   1.346       .  D
C997        H999   1.086       .  S
C998       H1000   1.086       .  S
C1001      C1002   1.347       .  D
C1001      H1003   1.085       .  S
C1002      H1004   1.087       .  S
C1005      C1006   1.346       .  D
C1005      H1007   1.086       .  S
C1006      H1008   1.086       .  S
C1009      C1010   1.344       .  D
C1009      H1011   1.084       .  S
C1010      H1012   1.087       .  S
C1013      C1014   1.345       .  D
C1013      H1015   1.086       .  S
C1014      H1016   1.086       .  S
C1017      C1018   1.340       .  D
C1017      H1019   1.086       .  S
C1018      H1020   1.086       .  S
C1021      C1022   1.343       .  D
C1021      H1023   1.086       .  S
C1022      H1024   1.087       .  S
C1025      C1026   1.347       .  D
C1025      H1027   1.084       .  S
C1026      H1028   1.086       .  S
C1029      C1030   1.339       .  D
C1029      H1031   1.086       .  S
C1030      H1032   1.086       .  S
C1033      C1034   1.345       .  D
C1033      H1035   1.084       .  S
C1034      H1036   1.087       .  S
C1037      C1038   1.345       .  D
C1037      H1039   1.086       .  S
C1038      H1040   1.085       .  S
C1041      C1042   1.343       .  D
C1041      H1043   1.086       .  S
C1042      H1044   1.085       .  S
C1045      C1046   1.347       .  D
C1045      H1047   1.084       .  S
C1046      H1048   1.087       .  S
C1049      C1050   1.347       .  D
C1049      H1051   1.086       .  S
C1050      H1052   1.086       .  S
C1053      C1054   1.343       .  D
C1053      H1055   1.085       .  S
C1054      H1056   1.086       .  S
C1057      C1058   1.345       .  D
C1057      H1059   1.086       .  S
C1058      H1060   1.086       .  S
C1061      C1062   1.347       .  D
C1061      H1063   1.085       .  S
C1062      H1064   1.087       .  S
C1065      C1066   1.341       .  D
C1065      H1067   1.087       .  S
C1066      H1068   1.087       .  S
C1069      C1070   1.344       .  D
C1069      H1071   1.086       .  S
C1070      H1072   1.086       .  S
C1073      C1074   1.343       .  D
C1073      H1075   1.085       .  S
C1074      H1076   1.087       .  S
C1077      C1078   1.341       .  D
C1077      H1079   1.086       .  S
C1078      H1080   1.086       .  S
C1081      C1082   1.343       .  D
C1081      H1083   1.086       .  S
C1082      H1084   1.086       .  S
C1085      C1086   1.344       .  D
C1085      H1087   1.087       .  S
C1086      H1088   1.085       .  S
C1089      C1090   1.341       .  D
C1089      H1091   1.086       .  S
C1090      H1092   1.086       .  S
C1093      C1094   1.344       .  D
C1093      H1095   1.086       .  S
C1094      H1096   1.086       .  S
C1097      C1098   1.344       .  D
C1097      H1099   1.085       .  S
C1098      H1100   1.087       .  S
C1101      C1102   1.342       .  D
C1101      H1103   1.086       .  S
C1102      H1104   1.086       .  S
C1105      C1106   1.348       .  D
C1105      H1107   1.084       .  S
C1106      H1108   1.087       .  S
C1109      C1110   1.346       .  D
C1109      H1111   1.086       .  S
C1110      H1112   1.087       .  S
C1113      C1114   1.343       .  D
C1113      H1115   1.086       .  S
C1114      H1116   1.085       .  S
C1117      C1118   1.346       .  D
C1117      H1119   1.084       .  S
C1118      H1120   1.087       .  S
C1121      C1122   1.344       .  D
C1121      H1123   1.086       .  S
C1122      H1124   1.087       .  S
C1125      C1126   1.342       .  D
C1125      H1127   1.086       .  S
C1126      H1128   1.086       .  S
C1129      C1130   1.347       .  D
C1129      H1131   1.085       .  S
C1130      H1132   1.087       .  S
C1133      C1134   1.345       .  D
C1133      H1135   1.086       .  S
C1134      H1136   1.086       .  S
C1137      C1138   1.343       .  D
C1137      H1139   1.086       .  S
C1138      H1140   1.086       .  S
C1141      C1142   1.348       .  D
C1141      H1143   1.084       .  S
C1142      H1144   1.087       .  S
C1145      C1146   1.347       .  D
C1145      H1147   1.086       .  S
C1146      H1148   1.086       .  S
C1149      C1150   1.344       .  D
C1149      H1151   1.086       .  S
C1150      H1152   1.086       .  S
C1153      C1154   1.343       .  D
C1153      H1155   1.086       .  S
C1154      H1156   1.087       .  S
C1157      C1158   1.344       .  D
C1157      H1159   1.085       .  S
C1158      H1160   1.087       .  S
C1161      C1162   1.342       .  D
C1161      H1163   1.086       .  S
C1162      H1164   1.086       .  S
C1165      C1166   1.343       .  D
C1165      H1167   1.087       .  S
C1166      H1168   1.086       .  S
C1169      C1170   1.345       .  D
C1169      H1171   1.087       .  S
C1170      H1172   1.085       .  S
C1173      C1174   1.343       .  D
C1173      H1175   1.086       .  S
C1174      H1176   1.086       .  S
C1177      C1178   1.348       .  D
C1177      H1179   1.085       .  S
C1178      H1180   1.087       .  S
C1181      C1182   1.345       .  D
C1181      H1183   1.087       .  S
C1182      H1184   1.086       .  S
C1185      C1186   1.342       .  D
C1185      H1187   1.086       .  S
C1186      H1188   1.086       .  S
C1189      C1190   1.345       .  D
C1189      H1191   1.086       .  S
C1190      H1192   1.086       .  S
C1193      C1194   1.347       .  D
C1193      H1195   1.084       .  S
C1194      H1196   1.087       .  S
C1197      C1198   1.344       .  D
C1197      H1199   1.086       .  S
C1198      H1200   1.085       .  S
C1201      C1202   1.342       .  D
C1201      H1203   1.085       .  S
C1202      H1204   1.087       .  S
C1205      C1206   1.343       .  D
C1205      H1207   1.086       .  S
C1206      H1208   1.087       .  S
C1209      C1210   1.341       .  D
C1209      H1211   1.086       .  S
C1210      H1212   1.086       .  S
C1213      C1214   1.345       .  D
C1213      H1215   1.086       .  S
C1214      H1216   1.086       .  S
C1217      C1218   1.347       .  D
C1217      H1219   1.085       .  S
C1218      H1220   1.087       .  S
C1221      C1222   1.343       .  D
C1221      H1223   1.086       .  S
C1222      H1224   1.086       .  S
C1225      C1226   1.344       .  D
C1225      H1227   1.087       .  S
C1226      H1228   1.086       .  S
C1229      C1230   1.346       .  D
C1229      H1231   1.084       .  S
C1230      H1232   1.087       .  S
C1233      C1234   1.343       .  D
C1233      H1235   1.086       .  S
C1234      H1236   1.086       .  S
C1237      C1238   1.343       .  D
C1237      H1239   1.087       .  S
C1238      H1240   1.085       .  S
C1241      C1242   1.343       .  D
C1241      H1243   1.086       .  S
C1242      H1244   1.086       .  S
C1245      C1246   1.342       .  D
C1245      H1247   1.086       .  S
C1246      H1248   1.086       .  S
C1249      C1250   1.346       .  D
C1249      H1251   1.086       .  S
C1250      H1252   1.086       .  S
C1253      C1254   1.347       .  D
C1253      H1255   1.084       .  S
C1254      H1256   1.087       .  S
C1257      C1258   1.343       .  D
C1257      H1259   1.086       .  S
C1258      H1260   1.085       .  S
C1261      C1262   1.345       .  D
C1261      H1263   1.085       .  S
C1262      H1264   1.087       .  S
C1265      C1266   1.345       .  D
C1265      H1267   1.086       .  S
C1266      H1268   1.086       .  S
C1269      C1270   1.340       .  D
C1269      H1271   1.086       .  S
C1270      H1272   1.086       .  S
C1273      C1274   1.345       .  D
C1273      H1275   1.085       .  S
C1274      H1276   1.085       .  S
C1277      C1278   1.341       .  D
C1277      H1279   1.086       .  S
C1278      H1280   1.087       .  S
C1281      C1282   1.346       .  D
C1281      H1283   1.086       .  S
C1282      H1284   1.086       .  S
C1285      C1286   1.346       .  D
C1285      H1287   1.086       .  S
C1286      H1288   1.086       .  S
C1289      C1290   1.347       .  D
C1289      H1291   1.087       .  S
C1290      H1292   1.086       .  S
C1293      C1294   1.339       .  D
C1293      H1295   1.086       .  S
C1294      H1296   1.087       .  S
C1297      C1298   1.346       .  D
C1297      H1299   1.086       .  S
C1298      H1300   1.087       .  S
C1301      C1302   1.343       .  D
C1301      H1303   1.083       .  S
C1302      H1304   1.087       .  S
C1305      C1306   1.339       .  D
C1305      H1307   1.086       .  S
C1306      H1308   1.086       .  S
C1309      C1310   1.344       .  D
C1309      H1311   1.085       .  S
C1310      H1312   1.087       .  S
C1313      C1314   1.344       .  D
C1313      H1315   1.086       .  S
C1314      H1316   1.087       .  S
C1317      C1318   1.339       .  D
C1317      H1319   1.086       .  S
C1318      H1320   1.086       .  S
C1321      C1322   1.345       .  D
C1321      H1323   1.084       .  S
C1322      H1324   1.087       .  S
C1325      C1326   1.346       .  D
C1325      H1327   1.086       .  S
C1326      H1328   1.086       .  S
C1329      C1330   1.343       .  D
C1329      H1331   1.085       .  S
C1330      H1332   1.086       .  S
C1333      C1334   1.345       .  D
C1333      H1335   1.087       .  S
C1334      H1336   1.084       .  S
C1337      C1338   1.344       .  D
C1337      H1339   1.086       .  S
C1338      H1340   1.086       .  S
C1341      C1342   1.343       .  D
C1341      H1343   1.085       .  S
C1342      H1344   1.086       .  S
C1345      C1346   1.344       .  D
C1345      H1347   1.086       .  S
C1346      H1348   1.086       .  S
C1349      C1350   1.344       .  D
C1349      H1351   1.087       .  S
C1350      H1352   1.085       .  S
C1353      C1354   1.342       .  D
C1353      H1355   1.086       .  S
C1354      H1356   1.086       .  S
C1357      C1358   1.342       .  D
C1357      H1359   1.086       .  S
C1358      H1360   1.087       .  S
C1361      C1362   1.341       .  D
C1361      H1363   1.085       .  S
C1362      H1364   1.087       .  S
C1365      C1366   1.341       .  D
C1365      H1367   1.086       .  S
C1366      H1368   1.086       .  S
C1369      C1370   1.343       .  D
C1369      H1371   1.087       .  S
C1370      H1372   1.084       .  S
C1373      C1374   1.345       .  D
C1373      H1375   1.086       .  S
C1374      H1376   1.087       .  S
C1377      C1378   1.339       .  D
C1377      H1379   1.086       .  S
C1378      H1380   1.087       .  S
C1381      C1382   1.344       .  D
C1381      H1383   1.086       .  S
C1382      H1384   1.087       .  S
C1385      C1386   1.346       .  D
C1385      H1387   1.085       .  S
C1386      H1388   1.087       .  S
C1389      C1390   1.338       .  D
C1389      H1391   1.086       .  S
C1390      H1392   1.086       .  S
C1393      C1394   1.345       .  D
C1393      H1395   1.085       .  S
C1394      H1396   1.087       .  S
C1397      C1398   1.344       .  D
C1397      H1399   1.086       .  S
C1398      H1400   1.086       .  S
C1401      C1402   1.347       .  D
C1401      H1403   1.086       .  S
C1402      H1404   1.085       .  S
C1405      C1406   1.346       .  D
C1405      H1407   1.083       .  S
C1406      H1408   1.086       .  S
C1409      C1410   1.345       .  D
C1409      H1411   1.086       .  S
C1410      H1412   1.087       .  S
C1413      C1414   1.340       .  D
C1413      H1415   1.085       .  S
C1414      H1416   1.086       .  S
