geometry optimzed in LAMMPS
_audit_creation_date              2020-11-30 
_audit_creation_method            'lammps2cif' 
_symmetry_space_group_name_H-M    'P1' 
_symmetry_Int_Tables_number       1 
_symmetry_cell_setting            triclinic 
loop_ 
_symmetry_equiv_pos_as_xyz 
  x,y,z 
_cell_length_a                    28.249503433460763 
_cell_length_b                    28.10700441543203 
_cell_length_c                    32.06131035731195 
_cell_angle_alpha                 90.77065722758957 
_cell_angle_beta                  92.48446363114088 
_cell_angle_gamma                 89.97204319521289 
loop_ 
_atom_site_label 
_atom_site_type_symbol 
_atom_site_fract_x 
_atom_site_fract_y 
_atom_site_fract_z 
_atom_site_charge 
C1          C  0.24815604  0.83016017  0.32932234     0.41570
N2          N  0.28615373  0.76429058  0.32435755     0.00460
C3          C  0.21533326  0.53278647  0.35449159    -0.07410
H4          H  0.15584698  0.64821881  0.46363027     0.05960
C5          C  0.34665429  0.66973344  0.49990776    -0.07760
Co6        Co  0.22385190  0.67649056  0.32171749     0.74180
N7          N  0.19530841  0.66090797  0.40874203    -0.26940
Co8        Co  0.25187503  0.61279272  0.41117993     0.74070
C9          C  0.30494379  0.66459290  0.52538214     0.41680
N10         N  0.38817292  0.71695081  0.40469451     0.00080
N11         N  0.28583912  0.64669400  0.46165245     0.00190
N12         N  0.19732870  0.57003787  0.29361632    -0.47790
H13         H  0.17616739  0.79080606  0.32876977     0.05940
N14         N  0.18496541  0.68448778  0.37431111     0.00470
N15         N  0.30646591  0.56295031  0.41351623     0.00210
C16         C  0.34836227  0.50379491  0.43573933     0.41820
N17         N  0.37902815  0.74351449  0.37179873    -0.26400
C18         C  0.24737246  0.65550359  0.22987007    -0.07320
N19         N  0.29162779  0.81093383  0.32690126    -0.47500
N20         N  0.30368011  0.52037802  0.43042453    -0.47730
C21         C  0.28767295  0.66468780  0.20405257     0.41590
N22         N  0.21151813  0.60111735  0.32355176     0.00460
N23         N  0.39155266  0.66380414  0.31697372    -0.26420
N24         N  0.24126896  0.75058227  0.32426403    -0.26910
N25         N  0.40268609  0.63535300  0.34832712     0.00100
H26         H  0.41161792  0.66748218  0.25336605     0.05990
H27         H  0.41725655  0.54436374  0.42684064     0.06020
N28         N  0.22223705  0.57936766  0.35904660    -0.26960
N29         N  0.33139880  0.65748368  0.46085544    -0.26570
N30         N  0.30551771  0.68594400  0.26732994     0.00460
C31         C  0.12489268  0.69682370  0.41167810     0.41860
C32         C  0.40878587  0.78099111  0.37400431    -0.07830
N33         N  0.35059312  0.57600563  0.40896292    -0.26570
H34         H  0.38295352  0.67768521  0.50961445     0.06010
N35         N  0.14333326  0.70592678  0.37463745    -0.47800
H36         H  0.41447987  0.80508208  0.34867468     0.05990
C37         C  0.44142087  0.60928933  0.29639643     0.41690
C38         C  0.21436201  0.79012374  0.32758288    -0.07320
Co39       Co  0.34063737  0.71538970  0.31997754     0.73820
N40         N  0.42311403  0.73388786  0.42913987    -0.47510
C41         C  0.19910657  0.52624508  0.31157730     0.41960
N42         N  0.32219090  0.68377066  0.22940511    -0.47500
Co43       Co  0.36886562  0.64628571  0.40571309     0.73890
C44         C  0.37940908  0.54071750  0.42100786    -0.07830
C45         C  0.15947958  0.66682596  0.43463615    -0.07390
N46         N  0.26186426  0.66986855  0.26837090    -0.26920
N47         N  0.26905474  0.64988386  0.49936256    -0.47680
H48         H  0.22283829  0.50637890  0.37809625     0.05970
C49         C  0.41481205  0.65085773  0.28354189    -0.07810
Cl50       Cl  0.29615864  0.66313783  0.36488268    -0.50810
C51         C  0.43846641  0.77429523  0.41226215     0.41720
H52         H  0.21215617  0.64299320  0.22094645     0.05930
N53         N  0.43269997  0.60137658  0.33715608    -0.47520
C54         C  0.29482680  0.65628668  0.02431890     0.41570
N55         N  0.27667807  0.63545195  0.96107829     0.00460
C56         C  0.41668691  0.65259534  0.78946997    -0.07410
H57         H  0.40793656  0.79832733  0.85606360     0.05960
C58         C  0.20682591  0.78149627  0.82655230    -0.07760
Co59       Co  0.36145559  0.63760390  0.90718339     0.74180
N60         N  0.37139787  0.73645330  0.87706285    -0.26940
Co61       Co  0.33541277  0.70978348  0.82341619     0.74070
C62         C  0.23927867  0.82227847  0.83173329     0.41680
N63         N  0.17763164  0.67527494  0.87172627     0.00080
N64         N  0.27961314  0.75773058  0.82737861     0.00190
N65         N  0.43446348  0.60162595  0.84204327    -0.47790
H66         H  0.37248595  0.67085645  0.00872140     0.05940
N67         N  0.37989727  0.70849345  0.90917005     0.00470
N68         N  0.30335759  0.68132008  0.76903840     0.00210
C69         C  0.28994335  0.66126795  0.70477090     0.41820
N70         N  0.18737726  0.65134585  0.90614104    -0.26400
C71         C  0.37105163  0.52912152  0.91552516    -0.07320
N72         N  0.25923067  0.63981063  0.99858723    -0.47500
N73         N  0.32255267  0.68016188  0.73209816    -0.47730
C74         C  0.33909235  0.49046403  0.92564579     0.41590
N75         N  0.39880918  0.63039434  0.85134844     0.00460
N76         N  0.21589774  0.57116382  0.85526770    -0.26420
N77         N  0.32206123  0.64688492  0.96073337    -0.26910
N78         N  0.20673953  0.59385479  0.81995138     0.00100
H79         H  0.21424176  0.49765658  0.87291745     0.05990
H80         H  0.21353037  0.63798667  0.71758682     0.06020
N81         N  0.38812912  0.65992787  0.82070318    -0.26960
N82         N  0.23505762  0.74295840  0.82434865    -0.26570
N83         N  0.29871248  0.55339059  0.91031981     0.00460
C84         C  0.43072730  0.76495720  0.91900217     0.41860
C85         C  0.15143291  0.65768240  0.93188519    -0.07830
N86         N  0.25979651  0.66454915  0.76780151    -0.26570
H87         H  0.16851350  0.78095300  0.82556648     0.06010
N88         N  0.41451026  0.72423273  0.93457799    -0.47800
H89         H  0.14744901  0.63934290  0.96096407     0.05990
C90         C  0.19336514  0.51963538  0.80639299     0.41690
C91         C  0.33657968  0.66104174  0.99925630    -0.07320
Co92       Co  0.24400153  0.60303448  0.90882440     0.73820
N93         N  0.13624310  0.69733451  0.87195741    -0.47510
C94         C  0.44718418  0.61389135  0.80312399     0.41960
N95         N  0.29490657  0.50872907  0.92232015    -0.47500
Co96       Co  0.21882147  0.66911239  0.81995902     0.73890
C97         C  0.24797957  0.65095137  0.72842718    -0.07830
C98         C  0.40144564  0.77361873  0.88075444    -0.07390
N99         N  0.34308760  0.56650403  0.90725399    -0.26920
N100        N  0.28361924  0.80449722  0.83163017    -0.47680
H101        H  0.41600737  0.67264265  0.76093277     0.05970
C102        C  0.20830069  0.52478789  0.84967938    -0.07810
Cl103      Cl  0.28986909  0.65504202  0.86496476    -0.50810
C104        C  0.11744403  0.68830043  0.90891336     0.41720
H105        H  0.40908990  0.53094781  0.92085741     0.05930
N106        N  0.19281573  0.56377585  0.78918838    -0.47520
C107        C  0.92640240  0.74045269  0.94978595     0.41570
N108        N  0.87439528  0.76993751  0.98927483     0.00460
C109        C  0.64922052  0.85839812  0.94418536    -0.07410
H110        H  0.77044535  0.92524875  0.85120023     0.05960
C111        C  0.86450115  0.98864839  0.97627582    -0.07760
Co112      Co  0.77765478  0.78360539  0.94852993     0.74180
N113        N  0.77599059  0.87116185  0.89791954    -0.26940
Co114      Co  0.74816027  0.90281095  0.95009683     0.74070
C115        C  0.85403494  0.99984102  0.93214664     0.41680
N116        N  0.88794169  0.89640643  0.04380116     0.00080
N117        N  0.80181211  0.95174210  0.95269027     0.00190
N118        N  0.66658253  0.77963918  0.94324422    -0.47790
H119        H  0.87254727  0.73733688  0.89319908     0.05940
N120        N  0.78797374  0.82588136  0.89690357     0.00470
N121        N  0.72102801  0.93480500  0.00246929     0.00210
C122        C  0.68096049  0.98081429  0.04160610     0.41820
N123        N  0.89794817  0.85073639  0.04611243    -0.26400
C124        C  0.73929958  0.70450267  0.00329023    -0.07320
N125        N  0.91894574  0.75615831  0.98861682    -0.47500
N126        N  0.68122022  0.95956003  0.00357159    -0.47730
C127        C  0.75156515  0.68517494  0.04425510     0.41590
N128        N  0.70572713  0.80594154  0.94677994     0.00460
N129        N  0.81476645  0.83144317  0.09167860    -0.26420
N130        N  0.85067384  0.76436030  0.95307616    -0.26910
N131        N  0.80559463  0.87746832  0.09260038     0.00100
H132        H  0.81651141  0.77710981  0.13797609     0.05990
H133        H  0.74046121  0.98143628  0.09285061     0.06020
N134        N  0.69597753  0.85189388  0.94763715    -0.26960
N135        N  0.83008426  0.95808922  0.98612293    -0.26570
N136        N  0.79232483  0.74804111  0.03576644     0.00460
C137        C  0.79611519  0.84989594  0.83440082     0.41860
C138        C  0.94392584  0.84592439  0.05754731    -0.07830
N139        N  0.74796334  0.94036009  0.03671696    -0.26570
H140        H  0.89414715  0.99957972  0.99659777     0.06010
N141        N  0.79955236  0.81136989  0.85919484    -0.47800
H142        H  0.96146552  0.81275973  0.06514742     0.05990
C143        C  0.79435205  0.85370218  0.15475820     0.41690
C144        C  0.88107878  0.74605817  0.92558969    -0.07320
Co145      Co  0.84486415  0.79944258  0.04104687     0.73820
N146        N  0.92496229  0.92369001  0.05354882    -0.47510
C147        C  0.62973214  0.81074613  0.94135548     0.41960
N148        N  0.78529009  0.71342837  0.06248071    -0.47500
Co149      Co  0.81815860  0.91906001  0.04027233     0.73890
C150        C  0.72511370  0.96746217  0.06373154    -0.07830
C151        C  0.78038292  0.88951981  0.86004739    -0.07390
N152        N  0.76686918  0.74272011  0.00056184    -0.26920
N153        N  0.81486297  0.97563023  0.92010300    -0.47680
H154        H  0.63137123  0.89243100  0.94308894     0.05970
C155        C  0.80816711  0.81322997  0.12916173    -0.07810
Cl156      Cl  0.79711429  0.85106834  0.99502159    -0.50810
C157        C  0.96198920  0.89452601  0.06200605     0.41720
H158        H  0.71700381  0.68963133  0.97814162     0.05930
N159        N  0.79387110  0.89251698  0.13014975    -0.47520
C160        C  0.92982012  0.73531268  0.44807711     0.41570
N161        N  0.87651691  0.76176399  0.48768131     0.00460
C162        C  0.65869581  0.86639729  0.44484457    -0.07410
H163        H  0.78297052  0.93163973  0.35439131     0.05960
C164        C  0.88409661  0.98096405  0.48068690    -0.07760
Co165      Co  0.78306403  0.78489519  0.44516193     0.74180
N166        N  0.78686179  0.87525802  0.39909289    -0.26940
Co167      Co  0.76084586  0.90575091  0.45246795     0.74070
C168        C  0.87412794  0.99473002  0.43693590     0.41680
N169        N  0.89829773  0.88321105  0.54623103     0.00080
N170        N  0.81826179  0.95029876  0.45670668     0.00190
N171        N  0.67285387  0.78736992  0.43808206    -0.47790
H172        H  0.87930495  0.74118628  0.38942185     0.05940
N173        N  0.79698733  0.82965368  0.39630129     0.00470
N174        N  0.73606626  0.93808570  0.50608267     0.00210
C175        C  0.70455840  0.99124333  0.54506433     0.41820
N176        N  0.90412530  0.83685246  0.54828493    -0.26400
C177        C  0.74093895  0.70136482  0.49149281    -0.07320
N178        N  0.92065921  0.74680244  0.48757633    -0.47500
N179        N  0.70052665  0.96876312  0.50747659    -0.47730
C180        C  0.75014538  0.67793608  0.53121884     0.41590
N181        N  0.71293127  0.81167422  0.44373312     0.00460
N182        N  0.81817931  0.82263888  0.59111774    -0.26420
N183        N  0.85466225  0.76125223  0.45037177    -0.26910
N184        N  0.81351531  0.86938194  0.59318791     0.00100
H185        H  0.81365819  0.76721216  0.63624854     0.05990
H186        H  0.76433347  0.98400838  0.59537542     0.06020
N187        N  0.70528649  0.85788265  0.44778371    -0.26960
N188        N  0.84734522  0.95272830  0.49000170    -0.26570
N189        N  0.79086270  0.74254001  0.53034804     0.00460
C190        C  0.80521267  0.85614234  0.33461373     0.41860
C191        C  0.94881393  0.82809470  0.56193717    -0.07830
N192        N  0.76399954  0.94050694  0.53996699    -0.26570
H193        H  0.91472956  0.98881702  0.50097748     0.06010
N194        N  0.80726638  0.81644300  0.35796680    -0.47800
H195        H  0.96283056  0.79351542  0.57020287     0.05990
C196        C  0.79829595  0.84521823  0.65447056     0.41690
C197        C  0.88604567  0.74518878  0.42272641    -0.07320
Co198      Co  0.84711041  0.79024465  0.53982656     0.73820
N199        N  0.93681898  0.90699231  0.55837712    -0.47510
C200        C  0.63714336  0.81965188  0.43840219     0.41960
N201        N  0.78172920  0.70529201  0.55365996    -0.47500
Co202      Co  0.83121762  0.91214702  0.54276027     0.73890
C203        C  0.74626990  0.97163945  0.56684786    -0.07830
C204        C  0.79164233  0.89518870  0.36187552    -0.07390
N205        N  0.76806200  0.74033402  0.49362084    -0.26920
N206        N  0.83296945  0.97426143  0.42476510    -0.47680
H207        H  0.64246737  0.90121159  0.44568488     0.05970
C208        C  0.80903516  0.80417045  0.62812819    -0.07810
Cl209      Cl  0.80532504  0.84816461  0.49518644    -0.50810
C210        C  0.97080179  0.87489276  0.56822627     0.41720
H211        H  0.72091992  0.68902012  0.46397022     0.05930
N212        N  0.80198961  0.88439689  0.63075190    -0.47520
C213        C  0.54668611  0.49871877  0.17936383     0.41570
N214        N  0.60003859  0.45122846  0.15870338     0.00460
C215        C  0.59348058  0.30440157  0.98284365    -0.07410
H216        H  0.43992386  0.30832271  0.04671288     0.05960
C217        C  0.52083867  0.24846949  0.18804947    -0.07760
Co218      Co  0.58373919  0.41420497  0.07111839     0.74180
N219        N  0.50385319  0.34619809  0.06576962    -0.26940
Co220      Co  0.55691593  0.29518626  0.07150653     0.74070
C221        C  0.47527186  0.24262927  0.16416264     0.41680
N222        N  0.61422414  0.32853130  0.21526044     0.00080
N223        N  0.52752863  0.26880156  0.12393841     0.00190
N224        N  0.61002031  0.38321974  0.98144808    -0.47790
H225        H  0.50629433  0.49506994  0.11502144     0.05940
N226        N  0.51419318  0.39177017  0.06808024     0.00470
N227        N  0.60918160  0.24363989  0.07764966     0.00210
C228        C  0.64343785  0.17587838  0.07327922     0.41820
N229        N  0.62722737  0.37345277  0.21403988    -0.26400
C230        C  0.67217040  0.46590122  0.04737176    -0.07320
N231        N  0.58656510  0.47596693  0.19127767    -0.47500
N232        N  0.61317953  0.20573866  0.05305034    -0.47730
C233        C  0.71218422  0.48783366  0.07056680     0.41590
N234        N  0.59668281  0.37022657  0.01886917     0.00460
N235        N  0.70643950  0.35189394  0.16319723    -0.26420
N236        N  0.57147149  0.45557993  0.12529838    -0.26910
N237        N  0.69620206  0.30602521  0.16460580     0.00100
H238        H  0.77181938  0.39152600  0.16580478     0.05990
H239        H  0.67778449  0.18426650  0.13934070     0.06020
N240        N  0.58672810  0.32439620  0.02011744    -0.26960
N241        N  0.55128797  0.26486201  0.16017255    -0.26570
N242        N  0.68032003  0.43477929  0.10842639     0.00460
C243        C  0.44013891  0.39024390  0.05001008     0.41860
C244        C  0.62201839  0.39357375  0.25161774    -0.07830
N245        N  0.63399993  0.23960924  0.11320959    -0.26570
H246        H  0.52939170  0.24160793  0.22060143     0.06010
N247        N  0.47745240  0.41913501  0.05852248    -0.47800
H248        H  0.63102477  0.42988778  0.26014781     0.05990
C249        C  0.77216650  0.30993236  0.16761554     0.41690
C250        C  0.53633840  0.48563736  0.13524754    -0.07320
Co251      Co  0.65431122  0.40316857  0.16120954     0.73820
N252        N  0.60030544  0.31616778  0.25258741    -0.47510
C253        C  0.60908128  0.34326495  0.95724742     0.41960
N254        N  0.71541732  0.46610262  0.10806186    -0.47500
Co255      Co  0.62420545  0.28380430  0.16416308     0.73890
C256        C  0.65771283  0.19861579  0.11293217    -0.07830
C257        C  0.45780168  0.34152195  0.05431010    -0.07390
N258        N  0.65324231  0.43637709  0.07404580    -0.26920
N259        N  0.48276825  0.25608419  0.12505422    -0.47680
H260        H  0.58561105  0.26784980  0.97420402     0.05970
C261        C  0.75336489  0.35781347  0.16537704    -0.07810
Cl262      Cl  0.60514575  0.34888305  0.11687686    -0.50810
C263        C  0.60391206  0.35567908  0.27706261     0.41720
H264        H  0.65441698  0.47742599  0.01871072     0.05930
N265        N  0.73504440  0.27928755  0.16704291    -0.47520
C266        C  0.55750246  0.50306164  0.69335959     0.41570
N267        N  0.55943888  0.43163920  0.66962084     0.00460
C268        C  0.75441577  0.29961477  0.61558206    -0.07410
H269        H  0.70240882  0.43433109  0.51408645     0.05960
C270        C  0.55272240  0.33606846  0.48106813    -0.07760
Co271      Co  0.65764835  0.39464355  0.66290452     0.74180
N272        N  0.68180426  0.40824503  0.57397311    -0.26940
Co273      Co  0.66543196  0.33498180  0.56790110     0.74070
C274        C  0.58918079  0.35646421  0.45577870     0.41680
N275        N  0.49739338  0.34977725  0.57785725     0.00080
N276        N  0.61749736  0.34710610  0.51829573     0.00190
N277        N  0.75048793  0.33908415  0.67727668    -0.47790
H278        H  0.63899238  0.50836220  0.69623334     0.05940
N279        N  0.67926917  0.42946154  0.61087070     0.00470
N280        N  0.64626429  0.26227728  0.56508041     0.00210
C281        C  0.64582746  0.18618671  0.56013848     0.41820
N282        N  0.49410126  0.37523675  0.61248227    -0.26400
C283        C  0.65376436  0.35467966  0.75198093    -0.07320
N284        N  0.53063952  0.46514476  0.68244795    -0.47500
N285        N  0.67449872  0.22487261  0.56127692    -0.47730
C286        C  0.61626277  0.33719513  0.77765353     0.41590
N287        N  0.71120808  0.34482536  0.65361853     0.00460
N288        N  0.52153443  0.29060972  0.65966082    -0.26420
N289        N  0.60427615  0.44462946  0.67202207    -0.26910
N290        N  0.52078119  0.26670190  0.62407419     0.00100
H291        H  0.48346752  0.28497712  0.71527402     0.05990
H292        H  0.56483692  0.18254073  0.56421552     0.06020
N293        N  0.71334089  0.32282124  0.61716353    -0.26960
N294        N  0.57350900  0.33166215  0.51924678    -0.26570
N295        N  0.58808740  0.34694795  0.71500938     0.00460
C296        C  0.70311974  0.48476169  0.57180577     0.41860
C297        C  0.45828692  0.40644510  0.60638350    -0.07830
N298        N  0.60132878  0.24968410  0.56698930    -0.26570
H299        H  0.51750766  0.32387982  0.47169005     0.06010
N300        N  0.69169608  0.47462844  0.61088712    -0.47800
H301        H  0.44667874  0.43245333  0.62890137     0.05990
C302        C  0.46989437  0.23151360  0.66161937     0.41690
C303        C  0.60676005  0.48942475  0.68725079    -0.07320
Co304      Co  0.54054723  0.36117411  0.66443091     0.73820
N305        N  0.46560306  0.36080218  0.54838063    -0.47510
C306        C  0.77931191  0.31066836  0.65526133     0.41960
N307        N  0.57653458  0.33357675  0.75271385    -0.47500
Co308      Co  0.54808632  0.29888062  0.57177164     0.73890
C309        C  0.59751554  0.20252538  0.56388948    -0.07830
C310        C  0.69641771  0.44080053  0.54676864    -0.07390
N311        N  0.63300785  0.35969392  0.71397082    -0.26920
N312        N  0.62846730  0.36180099  0.48085872    -0.47680
H313        H  0.76680221  0.28132352  0.58825078     0.05970
C314        C  0.49370681  0.26924767  0.68604159    -0.07810
Cl315      Cl  0.60301140  0.34732579  0.61683084    -0.50810
C316        C  0.43919107  0.39593696  0.56382677     0.41720
H317        H  0.68921348  0.36628505  0.76122663     0.05930
N318        N  0.48902339  0.23180054  0.62350454    -0.47520
C319        C  0.21280314  0.02977899  0.31011483     0.41570
N320        N  0.19240655  0.08164977  0.26460536     0.00460
C321        C  0.10622885  0.31067076  0.27971458    -0.07410
H322        H  0.03370966  0.19553245  0.38685216     0.05960
C323        C  0.98059388  0.08811494  0.26953689    -0.07760
Co324      Co  0.17826067  0.18093053  0.29770208     0.74180
N325        N  0.08944658  0.18846311  0.34337054    -0.26940
Co326      Co  0.05914345  0.21123381  0.28698507     0.74070
C327        C  0.96914204  0.10074914  0.31268618     0.41680
N328        N  0.07039478  0.06451930  0.20474582     0.00080
N329        N  0.01175755  0.15565856  0.28791389     0.00190
N330        N  0.18380841  0.29176601  0.28936000    -0.47790
H331        H  0.21352341  0.08611111  0.36353888     0.05940
N332        N  0.13401296  0.17507935  0.34742030     0.00470
N333        N  0.02563982  0.23295022  0.23101586     0.00210
C334        C  0.97003470  0.26121512  0.18993644     0.41820
N335        N  0.11587967  0.05501412  0.20383069    -0.26400
C336        C  0.26384351  0.21174680  0.24902993    -0.07320
N337        N  0.20222822  0.03615002  0.26948234    -0.47500
N338        N  0.99426170  0.26795028  0.22703767    -0.47730
C339        C  0.28502431  0.19811799  0.21015411     0.41590
N340        N  0.15655931  0.25327864  0.29091337     0.00460
N341        N  0.13559360  0.13631767  0.15436728    -0.26420
N342        N  0.19565065  0.10693783  0.29976885    -0.26910
N343        N  0.08947798  0.14453317  0.15103050     0.00100
H344        H  0.19047677  0.13354266  0.11002699     0.05990
H345        H  0.97571994  0.19708846  0.14520139     0.06020
N346        N  0.11101142  0.26374681  0.28538691    -0.26960
N347        N  0.00767909  0.12425680  0.25692288    -0.26570
N348        N  0.21834980  0.16199205  0.21415827     0.00460
C349        C  0.10767324  0.16908204  0.40896679     0.41860
C350        C  0.12088773  0.00937475  0.19188654    -0.07830
N351        N  0.02193956  0.20262800  0.19942719    -0.26570
H352        H  0.97281096  0.05576954  0.25197192     0.06010
N353        N  0.14662906  0.16361964  0.38629156    -0.47800
H354        H  0.15397926  0.99281783  0.18407410     0.05990
C355        C  0.11398610  0.15355694  0.08897401     0.41690
C356        C  0.20861854  0.07674412  0.33083057    -0.07320
Co357      Co  0.16634314  0.10898980  0.20887079     0.73820
N358        N  0.04371474  0.02768610  0.19334262    -0.47510
C359        C  0.15447998  0.32940350  0.28211857     0.41960
N360        N  0.25514596  0.16684668  0.19015862    -0.47500
Co361      Co  0.04676186  0.13381612  0.20270505     0.73890
C362        C  0.98947480  0.21818273  0.17139581    -0.07830
C363        C  0.06976608  0.18579499  0.38056116    -0.07390
N364        N  0.22309022  0.18754872  0.24886183    -0.26920
N365        N  0.98977444  0.14288076  0.32146969    -0.47680
H366        H  0.07292230  0.32920287  0.27500748     0.05970
C367        C  0.15416546  0.14137201  0.11700890    -0.07810
Cl368      Cl  0.11273352  0.15903094  0.24884179    -0.50810
C369        C  0.07264931  0.99094107  0.18503602     0.41720
H370        H  0.27832668  0.23330448  0.27467460     0.05930
N371        N  0.07502632  0.15464114  0.11221981    -0.47520
C372        C  0.20942559  0.02153664  0.80636850     0.41570
N373        N  0.18936604  0.07370287  0.76090276     0.00460
C374        C  0.10342977  0.30234307  0.78122935    -0.07410
H375        H  0.03691980  0.18531164  0.88792906     0.05960
C376        C  0.97314989  0.08460931  0.76881260    -0.07760
Co377      Co  0.17780621  0.17345694  0.79395304     0.74180
N378        N  0.09111416  0.17917554  0.84302065    -0.26940
Co379      Co  0.05865264  0.20303586  0.78793861     0.74070
C380        C  0.96266563  0.09728880  0.81205415     0.41680
N381        N  0.06444247  0.05718635  0.70439494     0.00080
N382        N  0.01056313  0.14830992  0.78909283     0.00190
N383        N  0.18176062  0.28519317  0.78624522    -0.47790
H384        H  0.21385735  0.07852621  0.85924990     0.05940
N385        N  0.13617763  0.16720124  0.84587810     0.00470
N386        N  0.02431114  0.22634004  0.73330914     0.00210
C387        C  0.97347828  0.26116640  0.69224099     0.41820
N388        N  0.10993174  0.04743793  0.70393519    -0.26400
C389        C  0.25776419  0.20643461  0.73778554    -0.07320
N390        N  0.19694571  0.02788363  0.76610003    -0.47500
N391        N  0.99672846  0.26438996  0.72993230    -0.47730
C392        C  0.27613705  0.19127750  0.69787280     0.41590
N393        N  0.15560509  0.24593660  0.78859990     0.00460
N394        N  0.12844547  0.12795934  0.65255034    -0.26420
N395        N  0.19518992  0.09937737  0.79563996    -0.26910
N396        N  0.08260483  0.13743364  0.65014098     0.00100
H397        H  0.18291819  0.12704507  0.60795910     0.05990
H398        H  0.97345216  0.19843933  0.64556347     0.06020
N399        N  0.10976376  0.25556766  0.78565763    -0.26960
N400        N  0.00368484  0.11830641  0.75734488    -0.26570
N401        N  0.21264676  0.15260404  0.70848727     0.00460
C402        C  0.11208893  0.16068823  0.90828922     0.41860
C403        C  0.11527713  0.00087827  0.69609765    -0.07830
N404        N  0.01865006  0.19718007  0.70098740    -0.26570
H405        H  0.96158709  0.05418120  0.75008062     0.06010
N406        N  0.15047266  0.15641712  0.88459840    -0.47800
H407        H  0.14852163  0.98333013  0.69043621     0.05990
C408        C  0.10648293  0.14883675  0.58828552     0.41690
C409        C  0.20840752  0.06908819  0.82660487    -0.07320
Co410      Co  0.16073527  0.10054970  0.70612424     0.73820
N411        N  0.03774856  0.01925089  0.69637621    -0.47510
C412        C  0.15100824  0.32227265  0.78136114     0.41960
N413        N  0.24679279  0.15727922  0.68172462    -0.47500
Co414      Co  0.04148976  0.12723880  0.70271405     0.73890
C415        C  0.98846302  0.21665597  0.67295076    -0.07830
C416        C  0.07280351  0.17594950  0.88069155    -0.07390
N417        N  0.21893707  0.18003266  0.74195177    -0.26920
N418        N  0.98711857  0.13693894  0.82217244    -0.47680
H419        H  0.06938818  0.31982898  0.77833649     0.06210
C420        C  0.14660918  0.13430373  0.61529558    -0.07810
Cl421      Cl  0.10980774  0.15139308  0.74755568    -0.50810
C422        C  0.06725381  0.98195207  0.69141036     0.41720
H423        H  0.27334345  0.23011811  0.76141259     0.05930
N424        N  0.06783448  0.14988963  0.61194346    -0.47520
C425        C  0.06501094  0.17224515  0.47621978    -0.14230
C426        C  0.10658703  0.16342904  0.45471945     0.07920
C427        C  0.14776976  0.14986459  0.47745014    -0.14230
C428        C  0.14766635  0.14553614  0.52074438    -0.14230
C429        C  0.10625926  0.15446165  0.54240690     0.07920
C430        C  0.06486863  0.16777680  0.51969350    -0.14230
H431        H  0.03260193  0.18266698  0.45960960     0.11900
H432        H  0.18030050  0.14275591  0.46177656     0.11900
H433        H  0.18020204  0.13499369  0.53701481     0.11900
H434        H  0.03241195  0.17475402  0.53551756     0.11900
C435        C  0.07066387  0.16080585  0.01942121    -0.14230
C436        C  0.11350288  0.15549211  0.04273133     0.07920
C437        C  0.15577387  0.15077477  0.02135709    -0.14230
C438        C  0.15521080  0.15160600  0.97769558    -0.14230
C439        C  0.11244488  0.15742895  0.95442407     0.07920
C440        C  0.07011246  0.16171433  0.97576077    -0.14230
H441        H  0.03747894  0.16417131  0.03492941     0.11900
H442        H  0.18944642  0.14656543  0.03822066     0.11900
H443        H  0.18838483  0.14825975  0.96217083     0.11900
H444        H  0.03644174  0.16586025  0.95885118     0.11900
C445        C  0.85001142  0.30944280  0.70558912    -0.14230
C446        C  0.83046437  0.30352284  0.66482612     0.07920
C447        C  0.86031157  0.29020154  0.63271491    -0.14230
C448        C  0.90790493  0.28010435  0.64148453    -0.14230
C449        C  0.92681052  0.28281802  0.68253845     0.07920
C450        C  0.89794910  0.29907301  0.71444577    -0.14230
H451        H  0.82786615  0.32024182  0.73079860     0.11900
H452        H  0.84697029  0.28664291  0.60073305     0.11900
H453        H  0.92954493  0.26819178  0.61627567     0.11900
H454        H  0.91165834  0.30120867  0.74646661     0.11900
C455        C  0.39805276  0.17803238  0.65332734    -0.14230
C456        C  0.41914428  0.22096435  0.66716825     0.07920
C457        C  0.39096390  0.25531607  0.68673031    -0.14230
C458        C  0.34412440  0.24587612  0.69502966    -0.14230
C459        C  0.32366684  0.20221662  0.68342299     0.07920
C460        C  0.35039512  0.16867121  0.66140678    -0.14230
H461        H  0.41868910  0.15139587  0.63749513     0.11900
H462        H  0.40490575  0.28984628  0.69602454     0.11900
H463        H  0.32399225  0.27270510  0.71115766     0.11900
H464        H  0.33511284  0.13466310  0.65204762     0.11900
C465        C  0.58258320  0.31037915  0.88748738    -0.14230
C466        C  0.61176306  0.34187033  0.91136630     0.07920
C467        C  0.64311970  0.37143991  0.89104394    -0.14230
C468        C  0.64574943  0.36893824  0.84752317    -0.14230
C469        C  0.61609101  0.33777508  0.82367541     0.07920
C470        C  0.58427975  0.30882159  0.84402459    -0.14230
H471        H  0.55764180  0.28755077  0.90233955     0.11900
H472        H  0.66586184  0.39597887  0.90883318     0.11900
H473        H  0.67012479  0.39224564  0.83251170     0.11900
H474        H  0.56085158  0.28486106  0.82628788     0.11900
C475        C  0.62064758  0.39243480  0.34754715    -0.14230
C476        C  0.59776409  0.35718442  0.32256449     0.07920
C477        C  0.57016463  0.32283063  0.34160284    -0.14230
C478        C  0.56564835  0.32369628  0.38493070    -0.14230
C479        C  0.58965759  0.35819697  0.40989137     0.07920
C480        C  0.61714149  0.39252267  0.39086744    -0.14230
H481        H  0.64248492  0.41918107  0.33384036     0.11900
H482        H  0.55223224  0.29530921  0.32301169     0.11900
H483        H  0.54475715  0.29642513  0.39902390     0.11900
H484        H  0.63613294  0.41924057  0.40959110     0.11900
C485        C  0.85076863  0.31953898  0.20493725    -0.14230
C486        C  0.82261550  0.29757109  0.17305842     0.07920
C487        C  0.84373407  0.26680398  0.14474592    -0.14230
C488        C  0.89233664  0.25744916  0.14864827    -0.14230
C489        C  0.92047380  0.27749873  0.18181347     0.07920
C490        C  0.89917576  0.30916183  0.20962536    -0.14230
H491        H  0.83503802  0.34406278  0.22671598     0.11900
H492        H  0.82277989  0.25062602  0.11927655     0.11900
H493        H  0.90736097  0.23358198  0.12606127     0.11900
H494        H  0.91968247  0.32518143  0.23542965     0.11900
C495        C  0.39102885  0.22222118  0.14613533    -0.14230
C496        C  0.42762771  0.22851384  0.17704574     0.07920
C497        C  0.41720104  0.22322006  0.21907096    -0.14230
C498        C  0.37069266  0.21318318  0.22990692    -0.14230
C499        C  0.33421545  0.20749124  0.19885303     0.07920
C500        C  0.34496239  0.21138585  0.15690574    -0.14230
H501        H  0.39786041  0.22602674  0.11336028     0.11900
H502        H  0.44457074  0.22780420  0.24345253     0.11900
H503        H  0.36328722  0.20971468  0.26257895     0.11900
H504        H  0.31748621  0.20719601  0.13251697     0.11900
C505        C  0.99143581  0.88561368  0.64302398    -0.14230
C506        C  0.00568371  0.88700698  0.60164494     0.07920
C507        C  0.04621363  0.91263753  0.59225084    -0.14230
C508        C  0.07024098  0.93955273  0.62337924    -0.14230
C509        C  0.05293627  0.94210727  0.66377996     0.07920
C510        C  0.01458209  0.91360791  0.67386001    -0.14230
H511        H  0.95935444  0.86699733  0.65047516     0.11900
H512        H  0.05678484  0.91508613  0.56026502     0.11900
H513        H  0.09922031  0.96215647  0.61481919     0.11900
H514        H  0.00036605  0.91584511  0.70467784     0.11900
C515        C  0.89901841  0.00517866  0.36434232    -0.14230
C516        C  0.90348519  0.01896598  0.40675473     0.07920
C517        C  0.93162368  0.05830992  0.41828817    -0.14230
C518        C  0.95323444  0.08466479  0.38753626    -0.14230
C519        C  0.94769467  0.07150307  0.34492606     0.07920
C520        C  0.92121119  0.03092596  0.33378133    -0.14230
H521        H  0.87751292  0.97477140  0.35464532     0.11900
H522        H  0.93520433  0.06980816  0.45064755     0.11900
H523        H  0.97388176  0.11568756  0.39710137     0.11900
H524        H  0.91647981  0.01986656  0.30140315     0.11900
C525        C  0.72311648  0.59577602  0.50922656    -0.14230
C526        C  0.73881139  0.62806833  0.54090189     0.07920
C527        C  0.74484331  0.61199563  0.58191403    -0.14230
C528        C  0.73412789  0.56502545  0.59136508    -0.14230
C529        C  0.71783400  0.53288706  0.55991783     0.07920
C530        C  0.71305730  0.54839961  0.51862637    -0.14230
H531        H  0.71877182  0.60688817  0.47712355     0.11900
H532        H  0.75716960  0.63593823  0.60679896     0.11900
H533        H  0.73831081  0.55390835  0.62353010     0.11900
H534        H  0.70038820  0.52440008  0.49392733     0.11900
C535        C  0.70679305  0.12297016  0.56937502    -0.14230
C536        C  0.66093549  0.13640241  0.55625114     0.07920
C537        C  0.62893242  0.10165275  0.54032637    -0.14230
C538        C  0.64282764  0.05409996  0.53721497    -0.14230
C539        C  0.68848408  0.04054446  0.55092043     0.07920
C540        C  0.72034375  0.07534644  0.56711206    -0.14230
H541        H  0.73193649  0.14916634  0.58177191     0.11900
H542        H  0.59339749  0.11130133  0.52961526     0.11900
H543        H  0.61806823  0.02796313  0.52408737     0.11900
H544        H  0.75626597  0.06614259  0.57697085     0.11900
C545        C  0.79441747  0.89100735  0.76567662    -0.14230
C546        C  0.79762207  0.84867744  0.78846210     0.07920
C547        C  0.80026120  0.80509794  0.76686998    -0.14230
C548        C  0.79943493  0.80382141  0.72327062    -0.14230
C549        C  0.79633563  0.84616740  0.70045300     0.07920
C550        C  0.79372734  0.88974683  0.72210061    -0.14230
H551        H  0.79259655  0.92521446  0.78139269     0.11900
H552        H  0.80248388  0.77192889  0.78364480     0.11900
H553        H  0.80147477  0.76962050  0.70762342     0.11900
H554        H  0.79158049  0.92295033  0.70537988     0.11900
C555        C  0.80210763  0.81275718  0.26647841    -0.14230
C556        C  0.80326276  0.85606971  0.28863678     0.07920
C557        C  0.79996402  0.89889263  0.26652677    -0.14230
C558        C  0.79572196  0.89827232  0.22291196    -0.14230
C559        C  0.79484418  0.85484479  0.20078418     0.07920
C560        C  0.79765546  0.81213142  0.22304000    -0.14230
H561        H  0.80409756  0.77922826  0.28271524     0.11900
H562        H  0.80085553  0.93287379  0.28279721     0.11900
H563        H  0.79390308  0.93170977  0.20653177     0.11900
H564        H  0.79665161  0.77802651  0.20703902     0.11900
C565        C  0.05288875  0.97684360  0.11049448    -0.14230
C566        C  0.05813094  0.95829243  0.15085889     0.07920
C567        C  0.03856103  0.91385574  0.15925664    -0.14230
C568        C  0.01116970  0.88974075  0.12824945    -0.14230
C569        C  0.00218897  0.91068199  0.08911267     0.07920
C570        C  0.02465513  0.95344622  0.07995743    -0.14230
H571        H  0.06698953  0.01165073  0.10381289     0.11900
H572        H  0.04139559  0.89966723  0.19050255     0.11900
H573        H  0.99334907  0.85719547  0.13618756     0.11900
H574        H  0.01758083  0.97041103  0.05018478     0.11900
C575        C  0.87407468  0.01581031  0.85892681    -0.14230
C576        C  0.88309575  0.02416582  0.90198810     0.07920
C577        C  0.91917339  0.05567623  0.91515636    -0.14230
C578        C  0.94514551  0.07926391  0.88563109    -0.14230
C579        C  0.93595762  0.07095663  0.84259641     0.07920
C580        C  0.90059718  0.03868861  0.82948221    -0.14230
H581        H  0.84652220  0.99138439  0.84787976     0.11900
H582        H  0.92672466  0.06267205  0.94806132     0.11900
H583        H  0.97253712  0.10396368  0.89649316     0.11900
H584        H  0.89279623  0.03191601  0.79657853     0.11900
C585        C  0.77413710  0.60780678  0.07806204    -0.14230
C586        C  0.74060714  0.63650856  0.05660302     0.07920
C587        C  0.69757329  0.61678894  0.04209327    -0.14230
C588        C  0.68873450  0.56878100  0.04697304    -0.14230
C589        C  0.72293878  0.53893768  0.06630387     0.07920
C590        C  0.76525080  0.55907650  0.08296504    -0.14230
H591        H  0.80776556  0.62253194  0.08938930     0.11900
H592        H  0.67092756  0.63843970  0.02611214     0.11900
H593        H  0.65465003  0.55549585  0.03553282     0.11900
H594        H  0.79164501  0.53703607  0.09878949     0.11900
C595        C  0.65759358  0.04445011  0.09013997    -0.14230
C596        C  0.65873026  0.02715689  0.04906804     0.07920
C597        C  0.64862666  0.05811025  0.01574867    -0.14230
C598        C  0.64185778  0.10667386  0.02355016    -0.14230
C599        C  0.64541211  0.12449418  0.06461717     0.07920
C600        C  0.65120113  0.09272597  0.09787338    -0.14230
H601        H  0.66479131  0.02107802  0.11624895     0.11900
H602        H  0.64953165  0.04554542  0.98371842     0.11900
H603        H  0.63646693  0.13056387  0.99754341     0.11900
H604        H  0.65214381  0.10516757  0.12996950     0.11900
C605        C  0.37263604  0.41305646  0.94957451    -0.14230
C606        C  0.35257982  0.45728020  0.95890918     0.07920
C607        C  0.35356541  0.47400627  0.00036008    -0.14230
C608        C  0.37825210  0.44893173  0.03155791    -0.14230
C609        C  0.40140564  0.40640824  0.02180326     0.07920
C610        C  0.39651293  0.38732312  0.98109963    -0.14230
H611        H  0.37267619  0.40012941  0.91761080     0.11900
H612        H  0.33877424  0.50850761  0.00786936     0.11900
H613        H  0.38247244  0.46458811  0.06256381     0.11900
H614        H  0.41513105  0.35510788  0.97277749     0.11900
C615        C  0.51525920  0.55744193  0.79250328    -0.14230
C616        C  0.48099693  0.58915353  0.77627678     0.07920
C617        C  0.47785848  0.59669193  0.73286479    -0.14230
C618        C  0.50648557  0.57153876  0.70612070    -0.14230
C619        C  0.53945667  0.53886967  0.72205688     0.07920
C620        C  0.54448711  0.53245338  0.76545146    -0.14230
H621        H  0.51843640  0.55099253  0.82572020     0.11900
H622        H  0.45159550  0.62021954  0.71888271     0.11900
H623        H  0.50098016  0.57559192  0.67268986     0.11900
H624        H  0.56873899  0.50591535  0.77806975     0.11900
C625        C  0.49932486  0.82014317  0.90939871    -0.14230
C626        C  0.48105208  0.77875209  0.92650798     0.07920
C627        C  0.51231108  0.74783789  0.94848069    -0.14230
C628        C  0.56083254  0.75749777  0.95240538    -0.14230
C629        C  0.57895745  0.79891424  0.93548363     0.07920
C630        C  0.54777881  0.83040286  0.91428034    -0.14230
H631        H  0.47627589  0.84440177  0.89218694     0.11900
H632        H  0.49952191  0.71537620  0.96189618     0.11900
H633        H  0.58404930  0.73302207  0.96921592     0.11900
H634        H  0.56100030  0.86266453  0.90083676     0.11900
C635        C  0.00642833  0.70829799  0.96897979    -0.14230
C636        C  0.97366107  0.72367292  0.93762193     0.07920
C637        C  0.98816699  0.72623850  0.89646395    -0.14230
C638        C  0.03503798  0.71491120  0.88719002    -0.14230
C639        C  0.06787868  0.69998372  0.91876315     0.07920
C640        C  0.05282577  0.69622948  0.95962946    -0.14230
H641        H  0.99626202  0.70600499  0.00109210     0.11900
H642        H  0.96386036  0.73838350  0.87183833     0.11900
H643        H  0.04561237  0.71790458  0.85526727     0.11900
H644        H  0.07714409  0.68492291  0.98456745     0.11900
C645        C  0.22061526  0.43834787  0.78794799    -0.14230
C646        C  0.18418641  0.47260442  0.78649251     0.07920
C647        C  0.13740680  0.45722117  0.77926037    -0.14230
C648        C  0.12700211  0.40848786  0.77573933    -0.14230
C649        C  0.16316913  0.37390514  0.77961613     0.07920
C650        C  0.21030091  0.38955286  0.78422078    -0.14230
H651        H  0.25690096  0.44925615  0.79492399     0.11900
H652        H  0.10856266  0.48262078  0.77963606     0.11900
H653        H  0.09021384  0.39811472  0.77192607     0.11900
H654        H  0.23897137  0.36407375  0.78718848     0.11900
C655        C  0.26333563  0.90727372  0.84618310    -0.14230
C656        C  0.22838278  0.87404086  0.83261835     0.07920
C657        C  0.18454765  0.89102129  0.81691485    -0.14230
C658        C  0.17713657  0.93993627  0.81198920    -0.14230
C659        C  0.21288333  0.97303985  0.82357569     0.07920
C660        C  0.25553784  0.95640644  0.84194155    -0.14230
H661        H  0.29745933  0.89518351  0.85855519     0.11900
H662        H  0.15702115  0.86649922  0.80604497     0.11900
H663        H  0.14426483  0.95187694  0.79689019     0.11900
H664        H  0.28402071  0.98103347  0.85007384     0.11900
C665        C  0.25923200  0.65112735  0.58894836    -0.14230
C666        C  0.30210060  0.66401378  0.57139220     0.07920
C667        C  0.34144789  0.67468232  0.59809992    -0.14230
C668        C  0.33770035  0.67299667  0.64152205    -0.14230
C669        C  0.29459771  0.66047744  0.65895045     0.07920
C670        C  0.25557398  0.64921037  0.63216387    -0.14230
H671        H  0.22827929  0.64244280  0.56924513     0.11900
H672        H  0.37500665  0.68444717  0.58554667     0.11900
H673        H  0.36844441  0.68177941  0.66146169     0.11900
H674        H  0.22188571  0.63949072  0.64445482     0.11900
C675        C  0.25154728  0.64556654  0.08989301    -0.14230
C676        C  0.29278797  0.65932830  0.07025740     0.07920
C677        C  0.33233556  0.67443904  0.09498125    -0.14230
C678        C  0.33071599  0.67562861  0.13847386    -0.14230
C679        C  0.28949713  0.66181721  0.15810996     0.07920
C680        C  0.24994960  0.64669345  0.13340536    -0.14230
H681        H  0.22057593  0.63360958  0.07164213     0.11900
H682        H  0.36464453  0.68532005  0.08086055     0.11900
H683        H  0.36172548  0.68751079  0.15672453     0.11900
H684        H  0.21764039  0.63586451  0.14755124     0.11900
C685        C  0.37996026  0.49826481  0.50886188    -0.14230
C686        C  0.36261823  0.47532748  0.47202584     0.07920
C687        C  0.36366513  0.42580185  0.46892240    -0.14230
C688        C  0.38534067  0.39958062  0.50106352    -0.14230
C689        C  0.40596733  0.42266696  0.53662399     0.07920
C690        C  0.40139239  0.47200380  0.54118190    -0.14230
H691        H  0.37905195  0.53671575  0.51163824     0.11900
H692        H  0.35031154  0.40774588  0.44077716     0.11900
H693        H  0.38847479  0.36139484  0.49705332     0.11900
H694        H  0.41738386  0.49049734  0.56807271     0.11900
C695        C  0.52986513  0.52314263  0.25245948    -0.14230
C696        C  0.51791616  0.52502306  0.20929799     0.07920
C697        C  0.47906277  0.55226872  0.19560034    -0.14230
C698        C  0.45358032  0.57844959  0.22433686    -0.14230
C699        C  0.46625794  0.57768356  0.26738378     0.07920
C700        C  0.50401504  0.54901811  0.28131043    -0.14230
H701        H  0.55952387  0.50192690  0.26398904     0.11900
H702        H  0.46888697  0.55408448  0.16272059     0.11900
H703        H  0.42396266  0.59951841  0.21260848     0.11900
H704        H  0.51441788  0.54782006  0.31418243     0.11900
C705        C  0.57113297  0.76139542  0.42678928    -0.14230
C706        C  0.58617097  0.80878020  0.43077552     0.07920
C707        C  0.55210109  0.84540171  0.42727919    -0.14230
C708        C  0.50388551  0.83464894  0.42027289    -0.14230
C709        C  0.48904846  0.78718279  0.41733149     0.07920
C710        C  0.52312736  0.75072417  0.42033663    -0.14230
H711        H  0.59643063  0.73247890  0.42905452     0.11900
H712        H  0.56251811  0.88236091  0.42997145     0.11900
H713        H  0.47819782  0.86321235  0.41800173     0.11900
H714        H  0.51258504  0.71372701  0.41764872     0.11900
C715        C  0.04275159  0.72278021  0.38893525    -0.14230
C716        C  0.07450769  0.70550185  0.42038996     0.07920
C717        C  0.05737103  0.69573481  0.45967787    -0.14230
C718        C  0.00985285  0.70398258  0.46765944    -0.14230
C719        C  0.97817544  0.72179244  0.43649583     0.07920
C720        C  0.99486833  0.73057877  0.39683512    -0.14230
H721        H  0.05494796  0.73042922  0.35817442     0.11900
H722        H  0.08074837  0.68240037  0.48447494     0.11900
H723        H  0.99796212  0.69698183  0.49866835     0.11900
H724        H  0.97143011  0.74484377  0.37250244     0.11900
C725        C  0.14733598  0.46474645  0.27494839    -0.14230
C726        C  0.19173024  0.47839205  0.29229133     0.07920
C727        C  0.22554606  0.44273643  0.30146677    -0.14230
C728        C  0.21438362  0.39443066  0.29589997    -0.14230
C729        C  0.16878772  0.38049078  0.28162117     0.07920
C730        C  0.13592396  0.41622942  0.26974752    -0.14230
H731        H  0.12031071  0.49129609  0.26850986     0.11900
H732        H  0.25988122  0.45224949  0.31549777     0.11900
H733        H  0.24058328  0.36800776  0.30511979     0.11900
H734        H  0.10061688  0.40680648  0.25811016     0.11900
C735        C  0.27600936  0.91320223  0.31844998    -0.14230
C736        C  0.23977449  0.88244582  0.33022001     0.07920
C737        C  0.19644871  0.90234515  0.34163925    -0.14230
C738        C  0.18905943  0.95184645  0.33959893    -0.14230
C739        C  0.22483710  0.98210831  0.32614891     0.07920
C740        C  0.26841108  0.96225945  0.31597217    -0.14230
H741        H  0.30975655  0.89911683  0.30923503     0.11900
H742        H  0.16795474  0.87962620  0.35099021     0.11900
H743        H  0.15447148  0.96615256  0.34598480     0.11900
H744        H  0.29579348  0.98452993  0.30383599     0.11900
loop_ 
_geom_bond_atom_site_label_1 
_geom_bond_atom_site_label_2 
_geom_bond_distance 
_geom_bond_site_symmetry_2 
_ccdc_geom_bond_type 
C1           N19   1.346       .  A
C1           C38   1.475       .  S
C1          C736   1.489       .  S
N2           N19   1.321       .  A
N2           N24   1.325       .  A
N2          Co39   2.071       .  S
C3           N28   1.329       .  A
C3           C41   1.441       .  S
C3           H48   1.082       .  S
H4           C45   1.081       .  S
C5           N29   1.347       .  A
C5            C9   1.471       .  S
C5           H34   1.081       .  S
Co6          N24   2.140       .  S
Co6          N14   2.062       .  S
Co6          N46   2.065       .  S
Co6          N22   2.149       .  S
Co6         Cl50   2.449       .  S
N7           C45   1.345       .  A
N7           N14   1.317       .  A
N7           Co8   2.092       .  S
Co8          N11   2.067       .  S
Co8          N28   2.053       .  S
Co8          N15   2.083       .  S
Co8         Cl50   2.447       .  S
C9           N47   1.346       .  A
C9          C666   1.481       .  S
N10          N17   1.317       .  A
N10          N40   1.319       .  A
N10         Co43   2.061       .  S
N11          N29   1.324       .  A
N11          N47   1.320       .  A
N12          C41   1.366       .  A
N12          N22   1.338       .  A
H13          C38   1.081       .  S
N14          N35   1.322       .  A
N15          N33   1.314       .  A
N15          N20   1.324       .  A
C16          N20   1.350       .  A
C16          C44   1.456       .  S
C16         C686   1.463       .  S
N17          C32   1.347       .  A
N17         Co39   2.091       .  S
C18          N46   1.341       .  A
C18          C21   1.461       .  S
C18          H52   1.081       .  S
C21          N42   1.349       .  A
C21         C679   1.477       .  S
N22          N28   1.323       .  A
N23          C49   1.328       .  A
N23          N25   1.320       .  A
N23         Co39   2.046       .  S
N24          C38   1.352       .  A
N25          N53   1.332       .  A
N25         Co43   2.128       .  S
H26          C49   1.080       .  S
H27          C44   1.082       .  S
N29         Co43   2.119       .  S
N30          N42   1.324       .  A
N30          N46   1.315       .  A
N30         Co39   2.082       .  S
C31          N35   1.345       .  A
C31          C45   1.470       .  S
C31         C716   1.482       .  S
C32          C51   1.470       .  S
C32          H36   1.082       .  S
N33          C44   1.333       .  A
N33         Co43   2.047       .  S
C37          N53   1.362       .  A
C37          C49   1.444       .  S
C37         C699   1.477       .  S
Co39        Cl50   2.454       .  S
N40          C51   1.345       .  A
C41         C726   1.484       .  S
Co43        Cl50   2.437       .  S
C51         C709   1.476       .  S
C54          N72   1.351   1_554  A
C54          C91   1.463   1_554  S
C54         C676   1.478       .  S
N55          N72   1.323       .  A
N55          N77   1.322       .  A
N55         Co92   2.077       .  S
C56          N81   1.327       .  A
C56          C94   1.448       .  S
C56         H101   1.080       .  S
H57          C98   1.082       .  S
C58          N82   1.348       .  A
C58          C62   1.471       .  S
C58          H87   1.082       .  S
Co59         N77   2.099       .  S
Co59         N67   2.059       .  S
Co59         N99   2.065       .  S
Co59         N75   2.124       .  S
Co59       Cl103   2.438       .  S
N60          C98   1.347       .  A
N60          N67   1.317       .  A
N60         Co61   2.090       .  S
Co61         N64   2.080       .  S
Co61         N81   2.048       .  S
Co61         N68   2.080       .  S
Co61       Cl103   2.450       .  S
C62         N100   1.349       .  A
C62         C656   1.487       .  S
N63          N70   1.319       .  A
N63          N93   1.323       .  A
N63         Co96   2.073       .  S
N64          N82   1.325       .  A
N64         N100   1.324       .  A
N65          C94   1.362       .  A
N65          N75   1.333       .  A
H66          C91   1.081   1_554  S
N67          N88   1.318       .  A
N68          N86   1.317       .  A
N68          N73   1.324       .  A
C69          N73   1.348       .  A
C69          C97   1.466       .  S
C69         C669   1.480       .  S
N70          C85   1.346       .  A
N70         Co92   2.097       .  S
C71          N99   1.337       .  A
C71          C74   1.462       .  S
C71         H105   1.082       .  S
C74          N95   1.350       .  A
C74         C606   1.464       .  S
N75          N81   1.320       .  A
N76         C102   1.330       .  A
N76          N78   1.323       .  A
N76         Co92   2.055       .  S
N77          C91   1.340       .  A
N78         N106   1.337       .  A
N78         Co96   2.143       .  S
H79         C102   1.081       .  S
H80          C97   1.081       .  S
N82         Co96   2.127       .  S
N83          N95   1.324       .  A
N83          N99   1.315       .  A
N83         Co92   2.081       .  S
C84          N88   1.344       .  A
C84          C98   1.472       .  S
C84         C626   1.482       .  S
C85         C104   1.470       .  S
C85          H89   1.082       .  S
N86          C97   1.342       .  A
N86         Co96   2.077       .  S
C90         N106   1.364       .  A
C90         C102   1.438       .  S
C90         C646   1.478       .  S
Co92       Cl103   2.451       .  S
N93         C104   1.347       .  A
C94         C616   1.480       .  S
Co96       Cl103   2.456       .  S
C104        C639   1.484       .  S
C107        N125   1.341       .  A
C107        C144   1.477       .  S
C107        C636   1.482       .  S
N108        N125   1.318       .  A
N108        N130   1.322       .  A
N108       Co145   2.055   1_556  S
C109        N134   1.333       .  A
C109        C147   1.449       .  S
C109        H154   1.081       .  S
H110        C151   1.081       .  S
C111        N135   1.348       .  A
C111        C115   1.471       .  S
C111        H140   1.081       .  S
Co112       N130   2.132       .  S
Co112       N120   2.081       .  S
Co112       N152   2.072   1_556  S
Co112       N128   2.125       .  S
Co112      Cl156   2.444       .  S
N113        C151   1.336       .  A
N113        N120   1.317       .  A
N113       Co114   2.069       .  S
Co114       N117   2.045       .  S
Co114       N134   2.053       .  S
Co114       N121   2.070   1_556  S
Co114      Cl156   2.446       .  S
C115        N153   1.339       .  A
C115        C576   1.471   1_565  S
N116        N123   1.317       .  A
N116        N146   1.321       .  A
N116       Co149   2.070       .  S
N117        N135   1.319       .  A
N117        N153   1.316       .  A
N118        C147   1.359       .  A
N118        N128   1.330       .  A
H119        C144   1.081       .  S
N120        N141   1.325       .  A
N121        N139   1.316       .  A
N121        N126   1.324       .  A
C122        N126   1.351       .  A
C122        C150   1.459       .  S
C122        C596   1.467   1_565  S
N123        C138   1.341       .  A
N123       Co145   2.080       .  S
C124        N152   1.333       .  A
C124        C127   1.456       .  S
C124        H158   1.081   1_554  S
C127        N148   1.349       .  A
C127        C586   1.466       .  S
N128        N134   1.321       .  A
N129        C155   1.333       .  A
N129        N131   1.319       .  A
N129       Co145   2.061       .  S
N130        C144   1.354       .  A
N131        N159   1.326       .  A
N131       Co149   2.100       .  S
H132        C155   1.081       .  S
H133        C150   1.081       .  S
N135       Co149   2.106   1_556  S
N136        N148   1.325       .  A
N136        N152   1.319       .  A
N136       Co145   2.072       .  S
C137        N141   1.353       .  A
C137        C151   1.456       .  S
C137        C546   1.475       .  S
C138        C157   1.462       .  S
C138        H142   1.081       .  S
N139        C150   1.333       .  A
N139       Co149   2.070       .  S
C143        N159   1.355       .  A
C143        C155   1.457       .  S
C143        C559   1.475       .  S
Co145      Cl156   2.447   1_554  S
N146        C157   1.349       .  A
C147        C629   1.476       .  S
Co149      Cl156   2.442   1_554  S
C157        C569   1.468   1_655  S
C160        N178   1.339       .  A
C160        C197   1.478       .  S
C160        C719   1.479       .  S
N161        N178   1.316       .  A
N161        N183   1.322       .  A
N161       Co198   2.052       .  S
C162        N187   1.337       .  A
C162        C200   1.457       .  S
C162        H207   1.081       .  S
H163        C204   1.081       .  S
C164        N188   1.353       .  A
C164        C168   1.475       .  S
C164        H193   1.081       .  S
Co165       N183   2.129       .  S
Co165       N173   2.073       .  S
Co165       N205   2.067       .  S
Co165       N181   2.118       .  S
Co165      Cl209   2.443       .  S
N166        C204   1.337       .  A
N166        N173   1.316       .  A
N166       Co167   2.067       .  S
Co167       N170   2.048       .  S
Co167       N187   2.067       .  S
Co167       N174   2.081       .  S
Co167      Cl209   2.446       .  S
C168        N206   1.338       .  A
C168        C516   1.475   1_565  S
N169        N176   1.315       .  A
N169        N199   1.319       .  A
N169       Co202   2.061       .  S
N170        N188   1.320       .  A
N170        N206   1.316       .  A
N171        C200   1.357       .  A
N171        N181   1.327       .  A
H172        C197   1.081       .  S
N173        N194   1.323       .  A
N174        N192   1.316       .  A
N174        N179   1.325       .  A
C175        N179   1.354       .  A
C175        C203   1.455       .  S
C175        C539   1.470   1_565  S
N176        C191   1.342       .  A
N176       Co198   2.083       .  S
C177        N205   1.336       .  A
C177        C180   1.455       .  S
C177        H211   1.081       .  S
C180        N201   1.355       .  A
C180        C526   1.478       .  S
N181        N187   1.322       .  A
N182        C208   1.337       .  A
N182        N184   1.321       .  A
N182       Co198   2.068       .  S
N183        C197   1.354       .  A
N184        N212   1.325       .  A
N184       Co202   2.105       .  S
H185        C208   1.081       .  S
H186        C203   1.081       .  S
N188       Co202   2.119       .  S
N189        N201   1.326       .  A
N189        N205   1.318       .  A
N189       Co198   2.089       .  S
C190        N194   1.352       .  A
C190        C204   1.455       .  S
C190        C556   1.473       .  S
C191        C210   1.463       .  S
C191        H195   1.081       .  S
N192        C203   1.333       .  A
N192       Co202   2.058       .  S
C196        N212   1.353       .  A
C196        C208   1.460       .  S
C196        C549   1.478       .  S
Co198      Cl209   2.451       .  S
N199        C210   1.348       .  A
C200        C706   1.481       .  S
Co202      Cl209   2.434       .  S
C210        C506   1.461   1_655  S
C213        N231   1.339       .  A
C213        C250   1.474       .  S
C213        C696   1.475       .  S
N214        N231   1.317       .  A
N214        N236   1.320       .  A
N214       Co251   2.043       .  S
C215        N240   1.335   1_556  A
C215        C253   1.455       .  S
C215        H260   1.081       .  S
H216        C257   1.081       .  S
C217        N241   1.352       .  A
C217        C221   1.477       .  S
C217        H246   1.081       .  S
Co218       N236   2.118       .  S
Co218       N226   2.062       .  S
Co218       N258   2.058       .  S
Co218       N234   2.113       .  S
Co218      Cl262   2.426       .  S
N219        C257   1.342       .  A
N219        N226   1.314       .  A
N219       Co220   2.078       .  S
Co220       N223   2.054       .  S
Co220       N240   2.063       .  S
Co220       N227   2.073       .  S
Co220      Cl262   2.454       .  S
C221        N259   1.340       .  A
C221        C496   1.481       .  S
N222        N229   1.317       .  A
N222        N252   1.327       .  A
N222       Co255   2.080       .  S
N223        N241   1.322       .  A
N223        N259   1.316       .  A
N224        C253   1.356       .  A
N224        N234   1.329   1_556  A
H225        C250   1.081       .  S
N226        N247   1.319       .  A
N227        N245   1.318       .  A
N227        N232   1.325       .  A
C228        N232   1.350       .  A
C228        C256   1.456       .  S
C228        C599   1.469       .  S
N229        C244   1.338       .  A
N229       Co251   2.074       .  S
C230        N258   1.329       .  A
C230        C233   1.458       .  S
C230        H264   1.081       .  S
C233        N254   1.355       .  A
C233        C589   1.478       .  S
N234        N240   1.320       .  A
N235        C261   1.335       .  A
N235        N237   1.323       .  A
N235       Co251   2.060       .  S
N236        C250   1.349       .  A
N237        N265   1.330       .  A
N237       Co255   2.127       .  S
H238        C261   1.081       .  S
H239        C256   1.081       .  S
N241       Co255   2.126       .  S
N242        N254   1.327       .  A
N242        N258   1.315       .  A
N242       Co251   2.084       .  S
C243        N247   1.347       .  A
C243        C257   1.463       .  S
C243        C609   1.465       .  S
C244        C263   1.457       .  S
C244        H248   1.081       .  S
N245        C256   1.333       .  A
N245       Co255   2.067       .  S
C249        N265   1.357       .  A
C249        C261   1.448       .  S
C249        C486   1.470       .  S
Co251      Cl262   2.460       .  S
N252        C263   1.352       .  A
C253        C466   1.476       .  S
Co255      Cl262   2.437       .  S
C263        C476   1.477       .  S
C266        N284   1.342       .  A
C266        C303   1.464       .  S
C266        C619   1.461       .  S
N267        N284   1.317       .  A
N267        N289   1.317       .  A
N267       Co304   2.054       .  S
C268        N293   1.333       .  A
C268        C306   1.457       .  S
C268        H313   1.081       .  S
H269        C310   1.082       .  S
C270        N294   1.342       .  A
C270        C274   1.460       .  S
C270        H299   1.081       .  S
Co271       N289   2.088       .  S
Co271       N279   2.061       .  S
Co271       N311   2.067       .  S
Co271       N287   2.089       .  S
Co271      Cl315   2.467       .  S
N272        C310   1.350       .  A
N272        N279   1.322       .  A
N272       Co273   2.115       .  S
Co273       N276   2.075       .  S
Co273       N293   2.067       .  S
Co273       N280   2.114       .  S
Co273      Cl315   2.432       .  S
C274        N312   1.349       .  A
C274        C479   1.473       .  S
N275        N282   1.319       .  A
N275        N305   1.315       .  A
N275       Co308   2.037       .  S
N276        N294   1.318       .  A
N276        N312   1.324       .  A
N277        C306   1.354       .  A
N277        N287   1.328       .  A
H278        C303   1.081       .  S
N279        N300   1.317       .  A
N280        N298   1.322       .  A
N280        N285   1.327       .  A
C281        N285   1.355       .  A
C281        C309   1.449       .  S
C281        C536   1.468       .  S
N282        C297   1.348       .  A
N282       Co304   2.116       .  S
C283        N311   1.338       .  A
C283        C286   1.459       .  S
C283        H317   1.081       .  S
C286        N307   1.353       .  A
C286        C469   1.476       .  S
N287        N293   1.319       .  A
N288        C314   1.329       .  A
N288        N290   1.316       .  A
N288       Co304   2.057       .  S
N289        C303   1.345       .  A
N290        N318   1.329       .  A
N290       Co308   2.093       .  S
H291        C314   1.082       .  S
H292        C309   1.081       .  S
N294       Co308   2.085       .  S
N295        N307   1.325       .  A
N295        N311   1.321       .  A
N295       Co304   2.103       .  S
C296        N300   1.342       .  A
C296        C310   1.472       .  S
C296        C529   1.475       .  S
C297        C316   1.472       .  S
C297        H301   1.081       .  S
N298        C309   1.332       .  A
N298       Co308   2.052       .  S
C302        N318   1.358       .  A
C302        C314   1.457       .  S
C302        C456   1.483       .  S
Co304      Cl315   2.411       .  S
N305        C316   1.340       .  A
C306        C446   1.478       .  S
Co308      Cl315   2.471       .  S
C316        C689   1.467       .  S
C319        N337   1.338       .  A
C319        C356   1.477       .  S
C319        C739   1.476   1_545  S
N320        N337   1.318       .  A
N320        N342   1.324       .  A
N320       Co357   2.061       .  S
C321        N346   1.340       .  A
C321        C359   1.460       .  S
C321        H366   1.081       .  S
H322        C363   1.081       .  S
C323        N347   1.349   1_655  A
C323        C327   1.473       .  S
C323        H352   1.081       .  S
Co324       N342   2.138       .  S
Co324       N332   2.076       .  S
Co324       N364   2.066       .  S
Co324       N340   2.135       .  S
Co324      Cl368   2.446       .  S
N325        C363   1.340       .  A
N325        N332   1.315       .  A
N325       Co326   2.075       .  S
Co326       N329   2.059       .  S
Co326       N346   2.083       .  S
Co326       N333   2.090       .  S
Co326      Cl368   2.460       .  S
C327        N365   1.341       .  A
C327        C519   1.479       .  S
N328        N335   1.314       .  A
N328        N358   1.319       .  A
N328       Co361   2.060       .  S
N329        N347   1.321       .  A
N329        N365   1.319   1_455  A
N330        C359   1.360       .  A
N330        N340   1.331       .  A
H331        C356   1.081       .  S
N332        N353   1.325       .  A
N333        N351   1.316       .  A
N333        N338   1.328   1_455  A
C334        N338   1.357       .  A
C334        C362   1.458       .  S
C334        C489   1.486       .  S
N335        C350   1.343       .  A
N335       Co357   2.082       .  S
C336        N364   1.337       .  A
C336        C339   1.453       .  S
C336        H370   1.081       .  S
C339        N360   1.354       .  A
C339        C499   1.476       .  S
N340        N346   1.325       .  A
N341        C367   1.338       .  A
N341        N343   1.323       .  A
N341       Co357   2.074       .  S
N342        C356   1.355       .  A
N343        N371   1.327       .  A
N343       Co361   2.116       .  S
H344        C367   1.081       .  S
H345        C362   1.080       .  S
N347       Co361   2.119       .  S
N348        N360   1.328       .  A
N348        N364   1.318       .  A
N348       Co357   2.093       .  S
C349        N353   1.353       .  A
C349        C363   1.457       .  S
C349        C426   1.479       .  S
C350        C369   1.465   1_545  S
C350        H354   1.082   1_545  S
N351        C362   1.334   1_455  A
N351       Co361   2.059       .  S
C355        N371   1.356       .  A
C355        C367   1.460       .  S
C355        C436   1.484       .  S
Co357      Cl368   2.456       .  S
N358        C369   1.348   1_545  A
C359        C729   1.492       .  S
Co361      Cl368   2.429       .  S
C369        C566   1.465       .  S
C372        N390   1.338       .  A
C372        C409   1.479       .  S
C372        C659   1.479   1_545  S
N373        N390   1.317       .  A
N373        N395   1.323       .  A
N373       Co410   2.054       .  S
C374        N399   1.335       .  A
C374        C412   1.456       .  S
C374        H419   1.081       .  S
H375        C416   1.081       .  S
C376        N400   1.347   1_655  A
C376        C380   1.469       .  S
C376        H405   1.081       .  S
Co377       N395   2.140       .  S
Co377       N385   2.089       .  S
Co377       N417   2.083       .  S
Co377       N393   2.138       .  S
Co377      Cl421   2.453       .  S
N378        C416   1.339       .  A
N378        N385   1.316       .  A
N378       Co379   2.074       .  S
Co379       N382   2.054       .  S
Co379       N399   2.070       .  S
Co379       N386   2.079       .  S
Co379      Cl421   2.446       .  S
C380        N418   1.340       .  A
C380        C579   1.470       .  S
N381        N388   1.314       .  A
N381        N411   1.322       .  A
N381       Co414   2.073       .  S
N382        N400   1.321       .  A
N382        N418   1.318   1_455  A
N383        C412   1.363       .  A
N383        N393   1.333       .  A
H384        C409   1.081       .  S
N385        N406   1.328       .  A
N386        N404   1.317       .  A
N386        N391   1.326   1_455  A
C387        N391   1.352       .  A
C387        C415   1.459       .  S
C387        C449   1.474       .  S
N388        C403   1.339       .  A
N388       Co410   2.070       .  S
C389        N417   1.337       .  A
C389        C392   1.460       .  S
C389        H423   1.081       .  S
C392        N413   1.349       .  A
C392        C459   1.473       .  S
N393        N399   1.322       .  A
N394        C420   1.334       .  A
N394        N396   1.321       .  A
N394       Co410   2.068       .  S
N395        C409   1.356       .  A
N396        N424   1.328       .  A
N396       Co414   2.111       .  S
H397        C420   1.081       .  S
H398        C415   1.081       .  S
N400       Co414   2.108       .  S
N401        N413   1.326       .  A
N401        N417   1.318       .  A
N401       Co410   2.070       .  S
C402        N406   1.355       .  A
C402        C416   1.457       .  S
C402        C439   1.483       .  S
C403        C422   1.458   1_545  S
C403        H407   1.082   1_545  S
N404        C415   1.335   1_455  A
N404       Co414   2.069       .  S
C408        N424   1.356       .  A
C408        C420   1.458       .  S
C408        C429   1.481       .  S
Co410      Cl421   2.447       .  S
N411        C422   1.351   1_545  A
C412        C649   1.494       .  S
Co414      Cl421   2.447       .  S
C422        C509   1.465       .  S
C425        H431   1.081       .  S
C425        C426   1.408       .  A
C425        C430   1.401       .  A
C426        C427   1.401       .  A
C427        H432   1.084       .  S
C427        C428   1.395       .  A
C428        H433   1.080       .  S
C428        C429   1.407       .  A
C429        C430   1.404       .  A
C430        H434   1.084       .  S
C435        H441   1.084       .  S
C435        C436   1.403       .  A
C435        C440   1.400   1_554  A
C436        C437   1.408       .  A
C437        H442   1.081       .  S
C437        C438   1.400   1_554  A
C438        H443   1.083       .  S
C438        C439   1.403       .  A
C439        C440   1.408       .  A
C440        H444   1.081       .  S
C445        H451   1.083       .  S
C445        C446   1.404       .  A
C445        C450   1.403       .  A
C446        C447   1.406       .  A
C447        H452   1.080       .  S
C447        C448   1.391       .  A
C448        H453   1.084       .  S
C448        C449   1.400       .  A
C449        C450   1.407       .  A
C450        H454   1.082       .  S
C455        H461   1.083       .  S
C455        C456   1.404       .  A
C455        C460   1.408       .  A
C456        C457   1.409       .  A
C457        H462   1.081       .  S
C457        C458   1.387       .  A
C458        H463   1.084       .  S
C458        C459   1.396       .  A
C459        C460   1.409       .  A
C460        H464   1.082       .  S
C465        H471   1.083       .  S
C465        C466   1.406       .  A
C465        C470   1.396       .  A
C466        C467   1.402       .  A
C467        H472   1.083       .  S
C467        C468   1.401       .  A
C468        H473   1.083       .  S
C468        C469   1.407       .  A
C469        C470   1.400       .  A
C470        H474   1.083       .  S
C475        H481   1.082       .  S
C475        C476   1.406       .  A
C475        C480   1.397       .  A
C476        C477   1.404       .  A
C477        H482   1.083       .  S
C477        C478   1.400       .  A
C478        H483   1.083       .  S
C478        C479   1.405       .  A
C479        C480   1.401       .  A
C480        H484   1.083       .  S
C485        H491   1.083       .  S
C485        C486   1.404       .  A
C485        C490   1.400       .  A
C486        C487   1.398       .  A
C487        H492   1.083       .  S
C487        C488   1.398       .  A
C488        H493   1.081       .  S
C488        C489   1.411       .  A
C489        C490   1.405       .  A
C490        H494   1.082       .  S
C495        H501   1.083       .  S
C495        C496   1.410       .  A
C495        C500   1.396       .  A
C496        C497   1.401       .  A
C497        H502   1.082       .  S
C497        C498   1.403       .  A
C498        H503   1.083       .  S
C498        C499   1.409       .  A
C499        C500   1.397       .  A
C500        H504   1.083       .  S
C505        H511   1.084       .  S
C505        C506   1.404   1_655  A
C505        C510   1.396   1_655  A
C506        C507   1.399       .  A
C507        H512   1.084       .  S
C507        C508   1.397       .  A
C508        H513   1.083       .  S
C508        C509   1.405       .  A
C509        C510   1.399       .  A
C510        H514   1.084       .  S
C515        H521   1.083   1_545  S
C515        C516   1.409       .  A
C515        C520   1.396       .  A
C516        C517   1.399       .  A
C517        H522   1.083       .  S
C517        C518   1.402       .  A
C518        H523   1.083       .  S
C518        C519   1.413       .  A
C519        C520   1.398       .  A
C520        H524   1.082       .  S
C525        H531   1.082       .  S
C525        C526   1.410       .  A
C525        C530   1.401       .  A
C526        C527   1.399       .  A
C527        H532   1.083       .  S
C527        C528   1.395       .  A
C528        H533   1.083       .  S
C528        C529   1.407       .  A
C529        C530   1.400       .  A
C530        H534   1.082       .  S
C535        H541   1.083       .  S
C535        C536   1.398       .  A
C535        C540   1.394       .  A
C536        C537   1.407       .  A
C537        H542   1.082       .  S
C537        C538   1.396       .  A
C538        H543   1.083       .  S
C538        C539   1.399       .  A
C539        C540   1.408       .  A
C540        H544   1.082       .  S
C545        H551   1.082       .  S
C545        C546   1.405       .  A
C545        C550   1.396       .  A
C546        C547   1.402       .  A
C547        H552   1.083       .  S
C547        C548   1.397       .  A
C548        H553   1.081       .  S
C548        C549   1.406       .  A
C549        C550   1.403       .  A
C550        H554   1.083       .  S
C555        H561   1.083       .  S
C555        C556   1.401       .  A
C555        C560   1.393       .  A
C556        C557   1.406       .  A
C557        H562   1.082       .  S
C557        C558   1.398       .  A
C558        H563   1.083       .  S
C558        C559   1.403       .  A
C559        C560   1.405       .  A
C560        H564   1.081       .  S
C565        H571   1.084   1_565  S
C565        C566   1.404       .  A
C565        C570   1.394       .  A
C566        C567   1.400       .  A
C567        H572   1.083       .  S
C567        C568   1.401       .  A
C568        H573   1.083   1_455  S
C568        C569   1.406       .  A
C569        C570   1.400       .  A
C570        H574   1.084       .  S
C575        H581   1.083   1_545  S
C575        C576   1.410       .  A
C575        C580   1.394       .  A
C576        C577   1.398       .  A
C577        H582   1.083       .  S
C577        C578   1.397       .  A
C578        H583   1.083       .  S
C578        C579   1.409       .  A
C579        C580   1.397       .  A
C580        H584   1.083       .  S
C585        H591   1.083       .  S
C585        C586   1.407       .  A
C585        C590   1.405       .  A
C586        C587   1.395       .  A
C587        H592   1.083       .  S
C587        C588   1.385       .  A
C588        H593   1.080       .  S
C588        C589   1.408       .  A
C589        C590   1.404       .  A
C590        H594   1.083       .  S
C595        H601   1.083       .  S
C595        C596   1.399       .  A
C595        C600   1.389       .  A
C596        C597   1.406       .  A
C597        H602   1.083   1_554  S
C597        C598   1.399       .  A
C598        H603   1.083   1_554  S
C598        C599   1.402       .  A
C599        C600   1.404       .  A
C600        H604   1.082       .  S
C605        H611   1.083       .  S
C605        C606   1.400       .  A
C605        C610   1.400       .  A
C606        C607   1.403   1_556  A
C607        H612   1.084       .  S
C607        C608   1.393       .  A
C608        H613   1.084       .  S
C608        C609   1.400       .  A
C609        C610   1.406   1_554  A
C610        H614   1.083       .  S
C615        H621   1.083       .  S
C615        C616   1.404       .  A
C615        C620   1.404       .  A
C616        C617   1.410       .  A
C617        H622   1.080       .  S
C617        C618   1.390       .  A
C618        H623   1.084       .  S
C618        C619   1.394       .  A
C619        C620   1.406       .  A
C620        H624   1.083       .  S
C625        H631   1.083       .  S
C625        C626   1.401       .  A
C625        C630   1.401       .  A
C626        C627   1.412       .  A
C627        H632   1.083       .  S
C627        C628   1.397       .  A
C628        H633   1.083       .  S
C628        C629   1.398       .  A
C629        C630   1.409       .  A
C630        H634   1.083       .  S
C635        H641   1.084   1_456  S
C635        C636   1.409   1_455  A
C635        C640   1.398       .  A
C636        C637   1.401       .  A
C637        H642   1.082       .  S
C637        C638   1.405   1_655  A
C638        H643   1.083       .  S
C638        C639   1.411       .  A
C639        C640   1.400       .  A
C640        H644   1.082       .  S
C645        H651   1.083       .  S
C645        C646   1.409       .  A
C645        C650   1.405       .  A
C646        C647   1.399       .  A
C647        H652   1.083       .  S
C647        C648   1.403       .  A
C648        H653   1.081       .  S
C648        C649   1.413       .  A
C649        C650   1.403       .  A
C650        H654   1.083       .  S
C655        H661   1.083       .  S
C655        C656   1.410       .  A
C655        C660   1.406       .  A
C656        C657   1.402       .  A
C657        H662   1.082       .  S
C657        C658   1.401       .  A
C658        H663   1.084       .  S
C658        C659   1.408       .  A
C659        C660   1.401       .  A
C660        H664   1.083       .  S
C665        H671   1.082       .  S
C665        C666   1.407       .  A
C665        C670   1.396       .  A
C666        C667   1.403       .  A
C667        H672   1.083       .  S
C667        C668   1.402       .  A
C668        H673   1.082       .  S
C668        C669   1.408       .  A
C669        C670   1.401       .  A
C670        H674   1.082       .  S
C675        H681   1.082       .  S
C675        C676   1.405       .  A
C675        C680   1.398       .  A
C676        C677   1.404       .  A
C677        H682   1.082       .  S
C677        C678   1.397       .  A
C678        H683   1.083       .  S
C678        C679   1.405       .  A
C679        C680   1.404       .  A
C680        H684   1.082       .  S
C685        H691   1.084       .  S
C685        C686   1.407       .  A
C685        C690   1.397       .  A
C686        C687   1.395       .  A
C687        H692   1.083       .  S
C687        C688   1.395       .  A
C688        H693   1.083       .  S
C688        C689   1.408       .  A
C689        C690   1.399       .  A
C690        H694   1.083       .  S
C695        H701   1.083       .  S
C695        C696   1.412       .  A
C695        C700   1.399       .  A
C696        C697   1.397       .  A
C697        H702   1.082       .  S
C697        C698   1.395       .  A
C698        H703   1.082       .  S
C698        C699   1.411       .  A
C699        C700   1.398       .  A
C700        H704   1.083       .  S
C705        H711   1.083       .  S
C705        C706   1.401       .  A
C705        C710   1.395       .  A
C706        C707   1.411       .  A
C707        H712   1.081       .  S
C707        C708   1.403       .  A
C708        H713   1.083       .  S
C708        C709   1.399       .  A
C709        C710   1.407       .  A
C710        H714   1.083       .  S
C715        H721   1.083       .  S
C715        C716   1.411       .  A
C715        C720   1.404   1_455  A
C716        C717   1.400       .  A
C717        H722   1.082       .  S
C717        C718   1.396       .  A
C718        H723   1.084   1_455  S
C718        C719   1.409   1_455  A
C719        C720   1.400       .  A
C720        H724   1.082       .  S
C725        H731   1.083       .  S
C725        C726   1.401       .  A
C725        C730   1.407       .  A
C726        C727   1.409       .  A
C727        H732   1.083       .  S
C727        C728   1.401       .  A
C728        H733   1.083       .  S
C728        C729   1.402       .  A
C729        C730   1.412       .  A
C730        H734   1.081       .  S
C735        H741   1.083       .  S
C735        C736   1.407       .  A
C735        C740   1.398       .  A
C736        C737   1.406       .  A
C737        H742   1.083       .  S
C737        C738   1.409       .  A
C738        H743   1.083       .  S
C738        C739   1.407       .  A
C739        C740   1.401       .  A
C740        H744   1.084       .  S
