geometry optimzed in LAMMPS
_audit_creation_date              2020-11-30 
_audit_creation_method            'lammps2cif' 
_symmetry_space_group_name_H-M    'P1' 
_symmetry_Int_Tables_number       1 
_symmetry_cell_setting            triclinic 
loop_ 
_symmetry_equiv_pos_as_xyz 
  x,y,z 
_cell_length_a                    34.68348879 
_cell_length_b                    37.012040072064515 
_cell_length_c                    28.73580698899168 
_cell_angle_alpha                 90.08349182580011 
_cell_angle_beta                  118.09222863568259 
_cell_angle_gamma                 89.97325578477425 
loop_ 
_atom_site_label 
_atom_site_type_symbol 
_atom_site_fract_x 
_atom_site_fract_y 
_atom_site_fract_z 
_atom_site_charge 
C1          C  0.88172317  0.09705525  0.66315412     0.80900
N2          N  0.83748770  0.09640305  0.63581749    -0.77400
C3          C  0.81570392  0.11634195  0.59153262     0.83300
N4          N  0.83846822  0.13721003  0.57404026    -0.77400
C5          C  0.88294217  0.13775970  0.60078597     0.83400
N6          N  0.90450416  0.11788052  0.64560879    -0.79100
O7          O  0.50348081  0.19668737  0.36008183    -0.80200
O8          O  0.45550283  0.07277297  0.47616629    -0.64900
O9          O  0.48490373  0.16330310  0.43668387    -1.11500
C10         C  0.62953556  0.11617878  0.51950930     1.06600
O11         O  0.51352689  0.07167922  0.55526644    -0.78100
O12         O  0.56868652  0.12750511  0.58409456    -0.65700
Ni13       Ni  0.45277771  0.18036359  0.36550269     1.34900
C14         C  0.56856755  0.16096774  0.57447831     0.85400
O15         O  0.40942061  0.13172503  0.43071237    -0.78700
O16         O  0.39793665  0.16744018  0.36239483    -0.89000
C17         C  0.47510142  0.06135328  0.52331655     0.85000
O18         O  0.45382480  0.13611541  0.33196324    -0.67200
O19         O  0.61674680  0.09398479  0.54321928    -0.86400
C20         C  0.44922245  0.10383567  0.34342834     0.85800
C21         C  0.38428015  0.14945398  0.38951693     1.07400
H22         H  0.52977136  0.08844792  0.45208962     0.39200
O23         O  0.52862599  0.10550617  0.47689084    -1.09100
O24         O  0.55947116  0.17328744  0.52903687    -0.65800
Ni25       Ni  0.54491308  0.15152199  0.46140872     1.26300
O26         O  0.45259407  0.09482749  0.38789890    -0.66000
O27         O  0.60458598  0.13897771  0.48585476    -0.78300
C28         C  0.54123096  0.20715622  0.39419872     0.85200
O29         O  0.55838804  0.19700963  0.44183349    -0.65500
Ni30       Ni  0.56281861  0.08458359  0.54507163     1.27400
Ni31       Ni  0.46890807  0.11795449  0.45460411     1.26100
H32         H  0.48250201  0.18159561  0.45917261     0.39700
C33         C  0.12853845  0.17420729  0.24631087     0.80900
N34         N  0.10770588  0.15373402  0.26693874    -0.77400
C35         C  0.13133039  0.13191013  0.30922689     0.83300
N36         N  0.17558036  0.13078409  0.33022762    -0.77400
C37         C  0.19632048  0.15099161  0.30950117     0.83400
N38         N  0.17264371  0.17277187  0.26788657    -0.79100
C39         C  0.63561305  0.33601916  0.25076497     0.80900
N40         N  0.61357933  0.31640704  0.27065617    -0.77400
C41         C  0.63565703  0.29317043  0.31159964     0.83300
N42         N  0.67973564  0.28979909  0.33191705    -0.77400
C43         C  0.70171275  0.30888243  0.31164778     0.83400
N44         N  0.67941200  0.33199681  0.27141836    -0.79100
O45         O  0.00760362  0.03285726  0.36664564    -0.80200
O46         O  0.96285244  0.23927665  0.48039233    -0.64900
O47         O  0.99092921  0.33095984  0.44319912    -1.11500
C48         C  0.13623596  0.28495497  0.52816339     1.06600
O49         O  0.01799627  0.24027672  0.56152700    -0.78100
O50         O  0.07123263  0.96403431  0.59043671    -0.65700
Ni51       Ni  0.95764955  0.34893954  0.37253380     1.34900
C52         C  0.07256986  0.99725249  0.58072102     0.85400
O53         O  0.91561855  0.29680695  0.43516431    -0.78700
O54         O  0.90306705  0.33505500  0.36937455    -0.89000
C55         C  0.98008167  0.22953956  0.52824247     0.85000
O56         O  0.95816676  0.30558988  0.33677290    -0.67200
O57         O  0.12304631  0.26466467  0.55371195    -0.86400
C58         C  0.95548956  0.27275513  0.34772634     0.85800
C59         C  0.88990023  0.31490631  0.39492206     1.07400
H60         H  0.03789652  0.25631437  0.46041783     0.39200
O61         O  0.03563963  0.27370042  0.48412783    -1.09100
O62         O  0.06603912  0.00877385  0.53569801    -0.65800
Ni63       Ni  0.05141546  0.31974924  0.46806618     1.26300
O64         O  0.96100525  0.26254771  0.39282006    -0.66000
O65         O  0.11133677  0.30690010  0.49258727    -0.78300
C66         C  0.04570484  0.04304833  0.39995851     0.85200
O67         O  0.06436898  0.03197882  0.44733264    -0.65500
Ni68       Ni  0.06840795  0.25412544  0.55351901     1.27400
Ni69       Ni  0.97555851  0.28489900  0.45990871     1.26100
H70         H  0.98834834  0.01525128  0.46631455     0.39700
C71         C  0.38949077  0.25698614  0.66797237     0.80900
N72         N  0.34513488  0.25718154  0.64193962    -0.77400
C73         C  0.32289307  0.27658059  0.59709339     0.83300
N74         N  0.34557264  0.96272422  0.57804572    -0.77400
C75         C  0.39004312  0.96274520  0.60361122     0.83400
N76         N  0.41201232  0.94337642  0.64887903    -0.79100
C77         C  0.88737364  0.17497721  0.16779170     0.80900
N78         N  0.91115713  0.15542216  0.15017056    -0.77400
C79         C  0.89044301  0.13501965  0.10565764     0.83300
N80         N  0.84611136  0.13386257  0.07915603    -0.77400
C81         C  0.82226972  0.15315605  0.09666847     0.83400
N82         N  0.84306703  0.17367985  0.14075120    -0.79100
O83         O  0.52429778  0.19727020  0.06293125    -0.80200
O84         O  0.56132303  0.06988093  0.94301402    -0.64900
O85         O  0.53590040  0.16166226  0.98260166    -1.11500
C86         C  0.38962273  0.12205182  0.89988484     1.06600
O87         O  0.50258472  0.06853547  0.86410820    -0.78100
O88         O  0.45768372  0.13089209  0.83893889    -0.65700
Ni89       Ni  0.57205476  0.18135409  0.05132495     1.34900
C90         C  0.45520216  0.16361374  0.85052051     0.85400
O91         O  0.60931930  0.12746107  0.98543847    -0.78700
O92         O  0.62483505  0.16916253  0.04824348    -0.89000
C93         C  0.54140717  0.05900362  0.89566305     0.85000
O94         O  0.57456631  0.13842803  0.08863693    -0.67200
O95         O  0.40132184  0.10335540  0.87147526    -0.86400
C96         C  0.57477235  0.10508842  0.07850254     0.85800
C97         C  0.63581112  0.14861038  0.02085938     1.07400
H98         H  0.48824993  0.08660176  0.96683254     0.39200
O99         O  0.48998647  0.10448111  0.94348491    -1.09100
O100        O  0.45926818  0.17329484  0.89517664    -0.65800
Ni101      Ni  0.47627144  0.15048562  0.96247333     1.26300
O102        O  0.56692045  0.09331399  0.03308153    -0.66000
O103        O  0.41661927  0.13841509  0.94147354    -0.78300
C104        C  0.48543417  0.20713512  0.03195699     0.85200
O105        O  0.46523089  0.19607868  0.98471207    -0.65500
Ni106      Ni  0.45454165  0.08754660  0.87257605     1.27400
Ni107      Ni  0.54994728  0.11542577  0.96483094     1.26100
H108        H  0.53688571  0.17888802  0.95795480     0.39700
C109        C  0.13636221  0.10112339  0.75200229     0.80900
N110        N  0.18049090  0.10415765  0.77584107    -0.77400
C111        C  0.20166975  0.12727546  0.81671372     0.83300
N112        N  0.17834218  0.14731272  0.83428959    -0.77400
C113        C  0.13393611  0.14466845  0.81047417     0.83400
N114        N  0.11311899  0.12159209  0.76913332    -0.79100
C115        C  0.63332165  0.26015316  0.75169391     0.80900
N116        N  0.67731496  0.26398400  0.77416138    -0.77400
C117        C  0.69872824  0.28742663  0.81440301     0.83300
N118        N  0.67576186  0.97392447  0.83253567    -0.77400
C119        C  0.63154038  0.97080048  0.81018654     0.83400
N120        N  0.61033492  0.94719574  0.76949662    -0.79100
C121        C  0.38484497  0.33691142  0.16802743     0.80900
N122        N  0.34067012  0.33694049  0.13946676    -0.77400
C123        C  0.31997704  0.31666777  0.09523008     0.83300
N124        N  0.34397103  0.29619840  0.07898936    -0.77400
C125        C  0.38841084  0.29613707  0.10718003     0.83400
N126        N  0.40874276  0.31637951  0.15181154    -0.79100
O127        O  0.02091699  0.03640779  0.05526501    -0.80200
O128        O  0.05664302  0.23933214  0.93912800    -0.64900
O129        O  0.03275931  0.33233588  0.97664354    -1.11500
C130        C  0.88620943  0.29194265  0.89402042     1.06600
O131        O  0.00030851  0.24093705  0.85847536    -0.78100
O132        O  0.95169693  0.96823734  0.83136419    -0.65700
Ni133      Ni  0.06875575  0.35172010  0.04559850     1.34900
C134        C  0.95017223  0.00105378  0.84328014     0.85400
O135        O  0.10598665  0.29635083  0.98121099    -0.78700
O136        O  0.12191682  0.33737865  0.04481192    -0.89000
C137        C  0.03813775  0.22987363  0.89114816     0.85000
O138        O  0.06774694  0.30939569  0.08210361    -0.67200
O139        O  0.89819806  0.27219510  0.86682188    -0.86400
C140        C  0.06782498  0.27591820  0.07297535     0.85800
C141        C  0.13285631  0.31672213  0.01751281     1.07400
H142        H  0.98372747  0.25799173  0.96093454     0.39200
O143        O  0.98609013  0.27554411  0.93768152    -1.09100
O144        O  0.95639558  0.01100938  0.88866857    -0.65800
Ni145      Ni  0.97268276  0.32188911  0.95574489     1.26300
O146        O  0.06198097  0.26398738  0.02837539    -0.66000
O147        O  0.91268779  0.31030581  0.93377706    -0.78300
C148        C  0.98197355  0.04586407  0.02405029     0.85200
O149        O  0.96174723  0.03452363  0.97701519    -0.65500
Ni150      Ni  0.95148023  0.25810844  0.86692834     1.27400
Ni151      Ni  0.04624783  0.28547709  0.95998082     1.26100
H152        H  0.03437829  0.01590822  0.95203835     0.39700
C153        C  0.27137700  0.31604830  0.06716356    -0.04700
C154        C  0.24852303  0.28309914  0.05920674    -0.01800
C155        C  0.20269913  0.28311448  0.03948368     0.03200
C156        C  0.17964325  0.31619338  0.02973988    -0.04700
C157        C  0.20230563  0.34902309  0.03551347    -0.01800
C158        C  0.24785198  0.34892133  0.05378847     0.03200
C159        C  0.27253717  0.24936674  0.07577678     0.37800
C160        C  0.17872710  0.04973018  0.02256405     0.37800
C161        C  0.27074090  0.04951782  0.05984553     0.36200
C162        C  0.17982115  0.24904525  0.03213493     0.36200
N163        N  0.28926014  0.07647217  0.06511823    -0.38600
N164        N  0.16165341  0.22181489  0.02605040    -0.38600
N165        N  0.15989698  0.07684653  0.01230647    -0.38000
N166        N  0.29185201  0.22258198  0.08967760    -0.38000
C167        C  0.74664289  0.29216485  0.83634747    -0.04700
C168        C  0.77493060  0.95628959  0.89121053    -0.01800
C169        C  0.82077112  0.95680094  0.91082333     0.03200
C170        C  0.83843217  0.29444678  0.87572881    -0.04700
C171        C  0.80987368  0.29987250  0.82135236    -0.01800
C172        C  0.76435863  0.29796051  0.80167780     0.03200
C173        C  0.75687687  0.95176872  0.92724099     0.37800
C174        C  0.82712104  0.30815352  0.78526777     0.37800
C175        C  0.73574650  0.30237022  0.74545468     0.36200
C176        C  0.84949627  0.95104934  0.96660398     0.36200
N177        N  0.71302653  0.30562411  0.70061767    -0.38600
N178        N  0.87228345  0.94629814  0.01111069    -0.38600
N179        N  0.84046193  0.31484507  0.75617447    -0.38000
N180        N  0.74202060  0.94849215  0.95558198    -0.38000
C181        C  0.10844180  0.16660099  0.82994833    -0.04700
C182        C  0.07312449  0.15108845  0.83487252    -0.01800
C183        C  0.05028888  0.17169918  0.85531322     0.03200
C184        C  0.06253948  0.20777062  0.87106096    -0.04700
C185        C  0.09628946  0.22380586  0.86401426    -0.01800
C186        C  0.11924138  0.20335824  0.84367888     0.03200
C187        C  0.06026849  0.11382714  0.81956436     0.37800
C188        C  0.10575709  0.26203601  0.87478039     0.37800
C189        C  0.15234522  0.22096058  0.83428719     0.36200
C190        C  0.01401838  0.15577739  0.85994269     0.36200
N191        N  0.17857101  0.23519698  0.82671136    -0.38600
N192        N  0.98499186  0.14290453  0.86320877    -0.38600
N193        N  0.11312042  0.29259010  0.88248143    -0.38000
N194        N  0.04968624  0.08423278  0.80694820    -0.38000
C195        C  0.34181689  0.12632346  0.88084887    -0.04700
C196        C  0.32311814  0.12142837  0.91482655    -0.01800
C197        C  0.27725346  0.12379941  0.89468162     0.03200
C198        C  0.24992240  0.13063455  0.84050172    -0.04700
C199        C  0.26881834  0.13769009  0.80743136    -0.01800
C200        C  0.31435011  0.13527878  0.82723479     0.03200
C201        C  0.35060956  0.11187288  0.96966790     0.37800
C202        C  0.24131830  0.14824666  0.75290527     0.37800
C203        C  0.33265642  0.14214828  0.79184701     0.36200
C204        C  0.25799678  0.11802461  0.92921495     0.36200
N205        N  0.34677402  0.14736992  0.76312659    -0.38600
N206        N  0.24216884  0.11375620  0.95636566    -0.38600
N207        N  0.21945261  0.15684575  0.70955332    -0.38000
N208        N  0.37244755  0.10406974  0.01338268    -0.38000
C209        C  0.60701888  0.99356110  0.83018611    -0.04700
C210        C  0.57210099  0.97896642  0.83670000    -0.01800
C211        C  0.55044970  0.00045255  0.85783007     0.03200
C212        C  0.56464950  0.03608183  0.87471171    -0.04700
C213        C  0.59875806  0.05098553  0.86724374    -0.01800
C214        C  0.61930710  0.03010011  0.84422120     0.03200
C215        C  0.55904859  0.27489773  0.82325399     0.37800
C216        C  0.61132481  0.08851776  0.88063720     0.37800
C217        C  0.65158915  0.04704276  0.83260624     0.36200
C218        C  0.51344718  0.98585621  0.86216113     0.36200
N219        N  0.67712659  0.06064430  0.82313166    -0.38600
N220        N  0.48370122  0.30754905  0.86507786    -0.38600
N221        N  0.62155374  0.11845128  0.89064494    -0.38000
N222        N  0.54866274  0.24505535  0.81259829    -0.38000
C223        C  0.46246817  0.23109192  0.05264017    -0.04700
C224        C  0.43814267  0.26110012  0.02288782    -0.01800
C225        C  0.41368635  0.28214969  0.04059451     0.03200
C226        C  0.41464731  0.27424716  0.08914669    -0.04700
C227        C  0.44112548  0.24576128  0.12063337    -0.01800
C228        C  0.46447634  0.22391560  0.10219146     0.03200
C229        C  0.44043172  0.27179197  0.97572723     0.37800
C230        C  0.44373634  0.23844024  0.17166805     0.37800
C231        C  0.48972517  0.19357402  0.13392527     0.36200
C232        C  0.38868932  0.31282852  0.00969207     0.36200
N233        N  0.50995343  0.16946375  0.15931785    -0.38600
N234        N  0.36878756  0.33734305  0.98517178    -0.38600
N235        N  0.44610312  0.23265584  0.21250845    -0.38000
N236        N  0.44276580  0.28081216  0.93860131    -0.38000
C237        C  0.77378881  0.15136192  0.06921614    -0.04700
C238        C  0.75198889  0.11775525  0.05991766    -0.01800
C239        C  0.70638869  0.11664388  0.04170236     0.03200
C240        C  0.68228785  0.14916002  0.03202694    -0.04700
C241        C  0.70361250  0.18251882  0.03658658    -0.01800
C242        C  0.74919848  0.18363268  0.05563532     0.03200
C243        C  0.77666740  0.08430325  0.07164196     0.37800
C244        C  0.67848898  0.21573764  0.02060475     0.37800
C245        C  0.77093196  0.21807702  0.06109333     0.36200
C246        C  0.68486021  0.08202946  0.03567049     0.36200
N247        N  0.78867029  0.24537362  0.06581337    -0.38600
N248        N  0.66777832  0.05438590  0.03084080    -0.38600
N249        N  0.65842735  0.24220479  0.00745611    -0.38000
N250        N  0.79634094  0.05763802  0.08077811    -0.38000
C251        C  0.91566124  0.11324944  0.08628679    -0.04700
C252        C  0.93448369  0.08024672  0.11097158    -0.01800
C253        C  0.95649971  0.05845280  0.09077158     0.03200
C254        C  0.95896610  0.06921539  0.04499972    -0.04700
C255        C  0.93944170  0.10200218  0.01982735    -0.01800
C256        C  0.91812390  0.12409632  0.04070284     0.03200
C257        C  0.92931825  0.40117857  0.15561954     0.37800
C258        C  0.94170441  0.11327277  0.97287793     0.37800
C259        C  0.89857416  0.15802387  0.01526952     0.36200
C260        C  0.97493982  0.35743306  0.11580311     0.36200
N261        N  0.88292573  0.18509127  0.99507953    -0.38600
N262        N  0.98963813  0.33002892  0.13558284    -0.38600
N263        N  0.94327113  0.12231793  0.93528138    -0.38000
N264        N  0.92484310  0.39105260  0.19086428    -0.38000
C265        C  0.41223161  0.23709362  0.71877518    -0.04700
C266        C  0.39830143  0.24192676  0.75735489    -0.01800
C267        C  0.41354158  0.21888590  0.80143771     0.03200
C268        C  0.44436736  0.19145739  0.80864542    -0.04700
C269        C  0.46130304  0.18882579  0.77244885    -0.01800
C270        C  0.44486061  0.21122271  0.72731801     0.03200
C271        C  0.36755878  0.27048505  0.75136260     0.37800
C272        C  0.49557436  0.16295392  0.78136472     0.37800
C273        C  0.45986668  0.20614874  0.68837710     0.36200
C274        C  0.39430685  0.22169715  0.83658324     0.36200
N275        N  0.47187200  0.20187685  0.65739107    -0.38600
N276        N  0.37843585  0.22366656  0.86404004    -0.38600
N277        N  0.52295315  0.14238152  0.78851193    -0.38000
N278        N  0.34302664  0.29322234  0.74649645    -0.38000
C279        C  0.18328944  0.28285543  0.54102317    -0.04700
C280        C  0.20423911  0.24888925  0.54870846    -0.01800
C281        C  0.24943492  0.24686206  0.56475454     0.03200
C282        C  0.27427138  0.27870176  0.57255184    -0.04700
C283        C  0.25287719  0.97925679  0.56163885    -0.01800
C284        C  0.20786005  0.98137508  0.54693346     0.03200
C285        C  0.17923310  0.21577061  0.53932805     0.37800
C286        C  0.27740808  0.01224551  0.56757072     0.37800
C287        C  0.18768999  0.01660082  0.54123459     0.36200
C288        C  0.27027504  0.21177025  0.57235091     0.36200
N289        N  0.17183790  0.04474623  0.53708565    -0.38600
N290        N  0.28692669  0.18381562  0.57841652    -0.38600
N291        N  0.29690891  0.03851592  0.57185179    -0.38000
N292        N  0.15932903  0.18934466  0.53183504    -0.38000
C293        C  0.08452428  0.02324024  0.62550095    -0.04700
C294        C  0.11521897  0.01285514  0.67768114    -0.01800
C295        C  0.12912833  0.03783276  0.71944983     0.03200
C296        C  0.11469281  0.07393169  0.70961537    -0.04700
C297        C  0.08207368  0.08393706  0.65885510    -0.01800
C298        C  0.06640648  0.05849382  0.61712601     0.03200
C299        C  0.13430482  0.97690901  0.68902045     0.37800
C300        C  0.06550455  0.12067381  0.64914216     0.37800
C301        C  0.03068433  0.06849033  0.56628785     0.36200
C302        C  0.15787569  0.02615505  0.77315666     0.36200
N303        N  0.00180959  0.07682261  0.52619580    -0.38600
N304        N  0.18037287  0.01683000  0.81599756    -0.38600
N305        N  0.05227389  0.14997008  0.64140914    -0.38000
N306        N  0.14960242  0.28164727  0.69844307    -0.38000
C307        C  0.90886037  0.19736277  0.21665768    -0.04700
C308        C  0.94121120  0.22311483  0.22338783    -0.01800
C309        C  0.95795071  0.24682262  0.26728005     0.03200
C310        C  0.94216546  0.24527356  0.30467031    -0.04700
C311        C  0.91008491  0.21913812  0.29798875    -0.01800
C312        C  0.89418547  0.19503974  0.25489337     0.03200
C313        C  0.95541781  0.22682496  0.18350501     0.37800
C314        C  0.89044481  0.21872720  0.33287190     0.37800
C315        C  0.86204943  0.16799683  0.24972227     0.36200
C316        C  0.99092678  0.27320423  0.27322576     0.36200
N317        N  0.83629630  0.14659205  0.24556310    -0.38600
N318        N  0.01703813  0.29433582  0.27764897    -0.38600
N319        N  0.87439975  0.21861741  0.36023038    -0.38000
N320        N  0.96658407  0.22994462  0.15157744    -0.38000
C321        C  0.74997442  0.30601533  0.33388452    -0.04700
C322        C  0.77771654  0.30742979  0.38898806    -0.01800
C323        C  0.82347426  0.30999177  0.40929148     0.03200
C324        C  0.84189006  0.31110888  0.37459720    -0.04700
C325        C  0.81419613  0.30715502  0.31961584    -0.01800
C326        C  0.76861317  0.30450168  0.29949657     0.03200
C327        C  0.75920733  0.30725093  0.42492511     0.37800
C328        C  0.83244973  0.30463403  0.28337695     0.37800
C329        C  0.74100612  0.29901202  0.24324472     0.36200
C330        C  0.85128829  0.97927003  0.46587458     0.36200
N331        N  0.71916314  0.29451789  0.19844452    -0.38600
N332        N  0.87341303  0.98117719  0.51103250    -0.38600
N333        N  0.84681925  0.30265216  0.25436136    -0.38000
N334        N  0.74400797  0.97333845  0.45314377    -0.38000
C335        C  0.61378324  0.36347425  0.20881216    -0.04700
C336        C  0.57954715  0.02070698  0.15875055    -0.01800
C337        C  0.56570580  0.04532976  0.11618175     0.03200
C338        C  0.58673503  0.07929949  0.12328247    -0.04700
C339        C  0.61973056  0.08907274  0.17449496    -0.01800
C340        C  0.63191065  0.06512330  0.21706520     0.03200
C341        C  0.55943721  0.31865365  0.15063718     0.37800
C342        C  0.64343110  0.12293936  0.18356203     0.37800
C343        C  0.66325100  0.40998130  0.26994156     0.36200
C344        C  0.52956549  0.03554477  0.06552556     0.36200
N345        N  0.68793609  0.41916057  0.31212952    -0.38600
N346        N  0.50055880  0.02717180  0.02553108    -0.38600
N347        N  0.66253321  0.14980509  0.19100602    -0.38000
N348        N  0.54331369  0.29044996  0.14421466    -0.38000
C349        C  0.07700222  0.25007617  0.11764043    -0.04700
C350        C  0.09958770  0.26216620  0.17115115    -0.01800
C351        C  0.11335256  0.23728334  0.21302228     0.03200
C352        C  0.10480975  0.20016780  0.20281212    -0.04700
C353        C  0.07933104  0.18816177  0.15050832    -0.01800
C354        C  0.06510894  0.21293530  0.10805815     0.03200
C355        C  0.11065181  0.29996994  0.18452137     0.37800
C356        C  0.06955327  0.14996574  0.14022231     0.37800
C357        C  0.03805357  0.19978453  0.05480715     0.36200
C358        C  0.13777894  0.24982200  0.26724582     0.36200
N359        N  0.01643144  0.18902122  0.01248937    -0.38600
N360        N  0.15734990  0.25980422  0.31036914    -0.38600
N361        N  0.06179593  0.11949793  0.13197740    -0.38000
N362        N  0.11942228  0.33003366  0.19563219    -0.38000
C363        C  0.10949718  0.10942736  0.33308176    -0.04700
C364        C  0.07679161  0.12438515  0.34355254    -0.01800
C365        C  0.05629165  0.10284202  0.36610518     0.03200
C366        C  0.06966729  0.06673474  0.38071397    -0.04700
C367        C  0.10286668  0.05196156  0.37133556    -0.01800
C368        C  0.12228522  0.07297071  0.34701279     0.03200
C369        C  0.06519416  0.16228882  0.33296295     0.37800
C370        C  0.11557761  0.34777074  0.38432850     0.37800
C371        C  0.15408276  0.05632140  0.33428761     0.36200
C372        C  0.02114147  0.11784127  0.37393078     0.36200
N373        N  0.17935566  0.04295627  0.32409661    -0.38600
N374        N  0.99289699  0.12996120  0.37963682    -0.38600
N375        N  0.12568147  0.31783502  0.39442010    -0.38000
N376        N  0.05618669  0.19256899  0.32483666    -0.38000
C377        C  0.33626463  0.14836008  0.37015344    -0.04700
C378        C  0.30777897  0.14282154  0.31569709    -0.01800
C379        C  0.26219229  0.14318378  0.29627802     0.03200
C380        C  0.24442402  0.14885905  0.33096334    -0.04700
C381        C  0.27271559  0.15337276  0.38552330    -0.01800
C382        C  0.31848908  0.15309411  0.40508441     0.03200
C383        C  0.32512139  0.13570044  0.27934755     0.37800
C384        C  0.25478470  0.15991565  0.42132462     0.37800
C385        C  0.34711409  0.15911956  0.46087528     0.36200
C386        C  0.23355884  0.13685397  0.24045670     0.36200
N387        N  0.36992205  0.16389845  0.50538821    -0.38600
N388        N  0.21073276  0.13191453  0.19598570    -0.38600
N389        N  0.24037526  0.16515521  0.44976411    -0.38000
N390        N  0.33864291  0.13003790  0.25011481    -0.38000
C391        C  0.58227023  0.18620941  0.62009288    -0.04700
C392        C  0.61763518  0.17633186  0.66942712    -0.01800
C393        C  0.63084408  0.19911610  0.71346174     0.03200
C394        C  0.61174622  0.23357310  0.70810972    -0.04700
C395        C  0.57591060  0.24343100  0.65938141    -0.01800
C396        C  0.56090817  0.21966901  0.61561654     0.03200
C397        C  0.64279834  0.14376379  0.67459349     0.37800
C398        C  0.55531910  0.27844728  0.65360244     0.37800
C399        C  0.52357711  0.22990989  0.56625179     0.36200
C400        C  0.66396147  0.18667741  0.76479873     0.36200
N401        N  0.49377038  0.23855592  0.52717195    -0.38600
N402        N  0.69007744  0.17659042  0.80570086    -0.38600
N403        N  0.53883481  0.97301990  0.64899946    -0.38000
N404        N  0.66307242  0.11800963  0.67859538    -0.38000
C405        C  0.40596334  0.35915698  0.21676328    -0.04700
C406        C  0.44054608  0.38305442  0.22555083    -0.01800
C407        C  0.45602983  0.07434192  0.26818510     0.03200
C408        C  0.43674355  0.07549598  0.30200319    -0.04700
C409        C  0.40315367  0.05062420  0.29409104    -0.01800
C410        C  0.38859676  0.02548769  0.25247893     0.03200
C411        C  0.45887427  0.38364975  0.18937669     0.37800
C412        C  0.38096070  0.05240789  0.32614313     0.37800
C413        C  0.35544173  0.33253779  0.24647078     0.36200
C414        C  0.49162605  0.09865592  0.27684588     0.36200
N415        N  0.32901120  0.31162489  0.24166631    -0.38600
N416        N  0.51996135  0.11805973  0.28360637    -0.38600
N417        N  0.36292409  0.05395360  0.35124837    -0.38000
N418        N  0.47351358  0.38415642  0.16055754    -0.38000
C419        C  0.41394294  0.98649243  0.58432712    -0.04700
C420        C  0.43785084  0.01633838  0.61486849    -0.01800
C421        C  0.45603138  0.04156610  0.59391496     0.03200
C422        C  0.45271553  0.03606341  0.54328967    -0.04700
C423        C  0.43022310  0.00526534  0.51369507    -0.01800
C424        C  0.41038382  0.98091998  0.53385319     0.03200
C425        C  0.44333588  0.02142068  0.66776949     0.37800
C426        C  0.42896349  0.99762483  0.46349055     0.37800
C427        C  0.38755053  0.28263945  0.50344869     0.39400
C428        C  0.47651615  0.07403089  0.62381731     0.36200
N429        N  0.36945212  0.25732419  0.47940678    -0.38600
N430        N  0.49254426  0.10001368  0.64753007    -0.38600
N431        N  0.42809909  0.32452156  0.42359443    -0.38000
N432        N  0.44816855  0.02527520  0.71016632    -0.38000
C433        C  0.61214989  0.27159260  0.33448118    -0.04700
C434        C  0.57733249  0.28697366  0.34066278    -0.01800
C435        C  0.55474988  0.26613070  0.36127055     0.03200
C436        C  0.56685315  0.22993828  0.37634160    -0.04700
C437        C  0.60194513  0.21468363  0.37127238    -0.01800
C438        C  0.62470840  0.23535583  0.35086675     0.03200
C439        C  0.56548138  0.32462981  0.32773476     0.37800
C440        C  0.61345443  0.17700272  0.38471010     0.37800
C441        C  0.66028468  0.21853885  0.34555389     0.36200
C442        C  0.51928527  0.28209205  0.36763239     0.36200
N443        N  0.68885332  0.20508247  0.34184628    -0.38600
N444        N  0.49108627  0.29491960  0.37277639    -0.38600
N445        N  0.62274892  0.14692529  0.39473720    -0.38000
N446        N  0.55598762  0.35466466  0.31755619    -0.38000
C447        C  0.76732183  0.11738250  0.56611434    -0.04700
C448        C  0.74591139  0.14943668  0.56766480    -0.01800
C449        C  0.70079372  0.14897803  0.55208888     0.03200
C450        C  0.67651605  0.11664032  0.53345536    -0.04700
C451        C  0.69765370  0.08487626  0.53010894    -0.01800
C452        C  0.74300774  0.08519864  0.54687256     0.03200
C453        C  0.77082941  0.18243309  0.58832748     0.37800
C454        C  0.67272322  0.05192447  0.50922943     0.37800
C455        C  0.76496608  0.05233410  0.54488882     0.36200
C456        C  0.68005143  0.18120090  0.55890093     0.36200
N457        N  0.78299849  0.02628905  0.54383935    -0.38600
N458        N  0.66356149  0.20673905  0.56480380    -0.38600
N459        N  0.65276060  0.02568503  0.49246598    -0.38000
N460        N  0.79080405  0.20869497  0.60482318    -0.38000
C461        C  0.90409444  0.07595992  0.71285356    -0.04700
C462        C  0.88930379  0.07861791  0.75095826    -0.01800
C463        C  0.90574459  0.05517980  0.79467151     0.03200
C464        C  0.93763604  0.02891272  0.80119694    -0.04700
C465        C  0.95434261  0.02774401  0.76474083    -0.01800
C466        C  0.93747927  0.05106148  0.72060786     0.03200
C467        C  0.85645450  0.10523076  0.74491885     0.37800
C468        C  0.98891662  0.00255201  0.77246053     0.37800
C469        C  0.95274329  0.04789317  0.68163009     0.36200
C470        C  0.88732081  0.05668701  0.83079095     0.36200
N471        N  0.96479048  0.04529398  0.65043486    -0.38600
N472        N  0.87244767  0.05776061  0.85935364    -0.38600
N473        N  0.01653875  0.98255134  0.77847215    -0.38000
N474        N  0.83011930  0.12625989  0.74009325    -0.38000
C475        C  0.90776560  0.16110712  0.58228754    -0.04700
C476        C  0.92983364  0.19197997  0.61155283    -0.01800
C477        C  0.95289932  0.21460389  0.59360656     0.03200
C478        C  0.95493933  0.20605168  0.54667534    -0.04700
C479        C  0.93306339  0.17484922  0.51778261    -0.01800
C480        C  0.90923085  0.15272874  0.53523406     0.03200
C481        C  0.92786558  0.20093927  0.65960239     0.37800
C482        C  0.93649651  0.16452616  0.47119555     0.37800
C483        C  0.88706827  0.12072560  0.50541567     0.36200
C484        C  0.97305895  0.24742318  0.62260577     0.36200
N485        N  0.86939416  0.09520024  0.48163254    -0.38600
N486        N  0.98891913  0.27362319  0.64578076    -0.38600
N487        N  0.93935445  0.15611563  0.43415230    -0.38000
N488        N  0.92623082  0.20796380  0.69789891    -0.38000
C489        C  0.88172138  0.43038708  0.66315718     0.80900
N490        N  0.83748585  0.42973500  0.63581955    -0.77400
C491        C  0.81570245  0.44967491  0.59153555     0.83300
N492        N  0.83846723  0.47054338  0.57404448    -0.77400
C493        C  0.88294107  0.47109282  0.60079076     0.83400
N494        N  0.90450269  0.45121315  0.64561314    -0.79100
O495        O  0.50348142  0.53002239  0.36008322    -0.80200
O496        O  0.45550065  0.40610925  0.47616604    -0.64900
O497        O  0.48490225  0.49663912  0.43668379    -1.11500
C498        C  0.62953416  0.44951489  0.51951324     1.06600
O499        O  0.51352309  0.40501762  0.55526764    -0.78100
O500        O  0.56868360  0.46084300  0.58409613    -0.65700
Ni501      Ni  0.45277752  0.51369907  0.36550213     1.34900
C502        C  0.56856522  0.49430540  0.57447896     0.85400
O503        O  0.40941800  0.46506058  0.43070901    -0.78700
O504        O  0.39793566  0.50077556  0.36239200    -0.89000
C505        C  0.47509829  0.39469059  0.52331695     0.85000
O506        O  0.45382621  0.46945096  0.33196382    -0.67200
O507        O  0.61674488  0.42732149  0.54322346    -0.86400
C508        C  0.44922438  0.43717123  0.34342917     0.85800
C509        C  0.38427813  0.48278930  0.38951301     1.07400
H510        H  0.52977081  0.42178391  0.45209271     0.39200
O511        O  0.52862449  0.43884257  0.47689298    -1.09100
O512        O  0.55946905  0.50662440  0.52903738    -0.65800
Ni513      Ni  0.54491187  0.48485791  0.46141043     1.26300
O514        O  0.45259472  0.42816324  0.38789925    -0.66000
O515        O  0.60458489  0.47231351  0.48585785    -0.78300
C516        C  0.54123159  0.54049059  0.39420065     0.85200
O517        O  0.55838749  0.53034496  0.44183555    -0.65500
Ni518      Ni  0.56281593  0.41792094  0.54507450     1.27400
Ni519      Ni  0.46890612  0.45129060  0.45460364     1.26100
H520        H  0.48249994  0.51493182  0.45917199     0.39700
C521        C  0.12853248  0.50753637  0.24629864     0.80900
N522        N  0.10770169  0.48706166  0.26692698    -0.77400
C523        C  0.13132789  0.46523895  0.30921570     0.83300
N524        N  0.17557799  0.46411529  0.33021690    -0.77400
C525        C  0.19631670  0.48432501  0.30949070     0.83400
N526        N  0.17263802  0.50610436  0.26787543    -0.79100
C527        C  0.63561009  0.66934597  0.25076072     0.80900
N528        N  0.61357783  0.64973317  0.27065267    -0.77400
C529        C  0.63565703  0.62649799  0.31159709     0.83300
N530        N  0.67973576  0.62312811  0.33191457    -0.77400
C531        C  0.70171174  0.64221271  0.31164492     0.83400
N532        N  0.67940947  0.66532643  0.27141485    -0.79100
O533        O  0.00759956  0.36619451  0.36664020    -0.80200
O534        O  0.96285246  0.57261029  0.48039977    -0.64900
O535        O  0.99092877  0.66429162  0.44320152    -1.11500
C536        C  0.13623639  0.61828884  0.52817465     1.06600
O537        O  0.01799426  0.57361271  0.56153558    -0.78100
O538        O  0.07122897  0.29736923  0.59042888    -0.65700
Ni539      Ni  0.95765089  0.68226741  0.37253381     1.34900
C540        C  0.07256902  0.33058703  0.58071309     0.85400
O541        O  0.91561819  0.63013922  0.43516719    -0.78700
O542        O  0.90306794  0.66838281  0.36937322    -0.89000
C543        C  0.98008047  0.56287435  0.52825014     0.85000
O544        O  0.95817227  0.63891564  0.33677880    -0.67200
O545        O  0.12304612  0.59799874  0.55372283    -0.86400
C546        C  0.95549419  0.60608163  0.34773503     0.85800
C547        C  0.88990029  0.64823653  0.39492234     1.07400
H548        H  0.03789814  0.58964685  0.46042779     0.39200
O549        O  0.03564010  0.60703362  0.48413620    -1.09100
O550        O  0.06603957  0.34210749  0.53569026    -0.65800
Ni551      Ni  0.05141560  0.65308201  0.46807244     1.26300
O552        O  0.96100714  0.59587695  0.39282855    -0.66000
O553        O  0.11133772  0.64023387  0.49259793    -0.78300
C554        C  0.04570298  0.37638188  0.39995143     0.85200
O555        O  0.06436807  0.36531099  0.44732468    -0.65500
Ni556      Ni  0.06840703  0.58746046  0.55352881     1.27400
Ni557      Ni  0.97555851  0.61823163  0.45991424     1.26100
H558        H  0.98834794  0.34858558  0.46631099     0.39700
C559        C  0.38949245  0.59031983  0.66796893     0.80900
N560        N  0.34513642  0.59051422  0.64193960    -0.77400
C561        C  0.32289198  0.60991274  0.59709327     0.83300
N562        N  0.34557068  0.29606001  0.57804599    -0.77400
C563        C  0.39004117  0.29608083  0.60361153     0.83400
N564        N  0.41201024  0.27671117  0.64887858    -0.79100
C565        C  0.88737917  0.50830242  0.16780135     0.80900
N566        N  0.91116296  0.48874700  0.15018097    -0.77400
C567        C  0.89044943  0.46834488  0.10566758     0.83300
N568        N  0.84611783  0.46718760  0.07916516    -0.77400
C569        C  0.82227570  0.48648129  0.09667655     0.83400
N570        N  0.84307236  0.50700570  0.14075894    -0.79100
O571        O  0.52430096  0.53060739  0.06292927    -0.80200
O572        O  0.56132318  0.40321263  0.94301677    -0.64900
O573        O  0.53590480  0.49499677  0.98260181    -1.11500
C574        C  0.38962451  0.45539059  0.89988028     1.06600
O575        O  0.50258769  0.40187173  0.86410808    -0.78100
O576        O  0.45768644  0.46422853  0.83893670    -0.65700
Ni577      Ni  0.57205858  0.51468926  0.05132474     1.34900
C578        C  0.45520700  0.49695050  0.85051868     0.85400
O579        O  0.60932428  0.46079035  0.98544489    -0.78700
O580        O  0.62483953  0.50249555  0.04824532    -0.89000
C581        C  0.54140858  0.39233708  0.89566479     0.85000
O582        O  0.57456809  0.47176399  0.08863712    -0.67200
O583        O  0.40132355  0.43669289  0.87147173    -0.86400
C584        C  0.57477217  0.43842394  0.07850381     0.85800
C585        C  0.63581625  0.48194031  0.02086485     1.07400
H586        H  0.48824910  0.41993851  0.96683018     0.39200
O587        O  0.48998775  0.43781742  0.94348337    -1.09100
O588        O  0.45927428  0.50663201  0.89517514    -0.65800
Ni589      Ni  0.47627446  0.48382287  0.96247093     1.26300
O590        O  0.56691905  0.42664788  0.03308314    -0.66000
O591        O  0.41662098  0.47175465  0.94146837    -0.78300
C592        C  0.48543777  0.54047299  0.03195393     0.85200
O593        O  0.46523536  0.52941691  0.98470879    -0.65500
Ni594      Ni  0.45454379  0.42088331  0.87257405     1.27400
Ni595      Ni  0.54995004  0.44875878  0.96483299     1.26100
H596        H  0.53689187  0.51222156  0.95795498     0.39700
C597        C  0.13636426  0.43445854  0.75199525     0.80900
N598        N  0.18049280  0.43749481  0.77583282    -0.77400
C599        C  0.20167107  0.46061193  0.81670654     0.83300
N600        N  0.17834303  0.48064688  0.83428426    -0.77400
C601        C  0.13393711  0.47800101  0.81046993     0.83400
N602        N  0.11312050  0.45492489  0.76912845    -0.79100
C603        C  0.63332052  0.59348948  0.75169518     0.80900
N604        N  0.67731364  0.59732070  0.77416248    -0.77400
C605        C  0.69872655  0.62076403  0.81440309     0.83300
N606        N  0.67576344  0.30725502  0.83253937    -0.77400
C607        C  0.63154180  0.30413214  0.81019060     0.83400
N608        N  0.61033495  0.28052812  0.76950004    -0.79100
C609        C  0.38484222  0.67024883  0.16801883     0.80900
N610        N  0.34066751  0.67027819  0.13945606    -0.77400
C611        C  0.31997493  0.65000573  0.09521897     0.83300
N612        N  0.34396979  0.62953654  0.07897914    -0.77400
C613        C  0.38840961  0.62947490  0.10717140     0.83400
N614        N  0.40874069  0.64971671  0.15180390    -0.79100
O615        O  0.02092283  0.36973885  0.05526747    -0.80200
O616        O  0.05664300  0.57266618  0.93912294    -0.64900
O617        O  0.03275630  0.66566903  0.97663987    -1.11500
C618        C  0.88620747  0.62527483  0.89401691     1.06600
O619        O  0.00030611  0.57426663  0.85847168    -0.78100
O620        O  0.95169896  0.30156962  0.83136670    -0.65700
Ni621      Ni  0.06875197  0.68505137  0.04559666     1.34900
C622        C  0.95017343  0.33438568  0.84328378     0.85400
O623        O  0.10598418  0.62968636  0.98120510    -0.78700
O624        O  0.12191417  0.67070729  0.04481422    -0.89000
C625        C  0.03813675  0.56320545  0.89114393     0.85000
O626        O  0.06773605  0.64272673  0.08209667    -0.67200
O627        O  0.89819596  0.60552799  0.86681749    -0.86400
C628        C  0.06781679  0.60924959  0.07296835     0.85800
C629        C  0.13285408  0.65005475  0.01751137     1.07400
H630        H  0.98372678  0.59132360  0.96093101     0.39200
O631        O  0.98608866  0.60887621  0.93767765    -1.09100
O632        O  0.95639681  0.34434025  0.88867252    -0.65800
Ni633      Ni  0.97268010  0.65522091  0.95574129     1.26300
O634        O  0.06197949  0.59731997  0.02837049    -0.66000
O635        O  0.91268612  0.64363657  0.93377471    -0.78300
C636        C  0.98197847  0.37919360  0.02405450     0.85200
O637        O  0.96175068  0.36785243  0.97702003    -0.65500
Ni638      Ni  0.95147825  0.59143999  0.86692473     1.27400
Ni639      Ni  0.04624595  0.61881069  0.95997611     1.26100
H640        H  0.03438073  0.34923894  0.95203926     0.39700
C641        C  0.27137443  0.64938581  0.06715256    -0.04700
C642        C  0.24852025  0.61643573  0.05918625    -0.01800
C643        C  0.20269659  0.61645008  0.03946681     0.03200
C644        C  0.17964120  0.64952842  0.02973758    -0.04700
C645        C  0.20230368  0.68235944  0.03552083    -0.01800
C646        C  0.24784918  0.68225883  0.05378915     0.03200
C647        C  0.27253386  0.58270232  0.07574155     0.37800
C648        C  0.17872784  0.38305579  0.02253951     0.37800
C649        C  0.27074399  0.38284418  0.05983368     0.36200
C650        C  0.17981853  0.58237972  0.03210636     0.36200
N651        N  0.28926288  0.40979804  0.06510068    -0.38600
N652        N  0.16165076  0.55514846  0.02601225    -0.38600
N653        N  0.15989535  0.41017111  0.01226822    -0.38000
N654        N  0.29184808  0.55591647  0.08963017    -0.38000
C655        C  0.74664108  0.62550283  0.83634627    -0.04700
C656        C  0.77493210  0.28962450  0.89121491    -0.01800
C657        C  0.82077297  0.29013623  0.91082841     0.03200
C658        C  0.83843026  0.62778030  0.87572546    -0.04700
C659        C  0.80987151  0.63320343  0.82134852    -0.01800
C660        C  0.76435654  0.63129254  0.80167490     0.03200
C661        C  0.75687807  0.28511101  0.92724627     0.37800
C662        C  0.82711844  0.64148207  0.78526275     0.37800
C663        C  0.73574435  0.63569773  0.74545093     0.36200
C664        C  0.84949769  0.28439263  0.96661110     0.36200
N665        N  0.71302443  0.63894784  0.70061327    -0.38600
N666        N  0.87228428  0.27964822  0.01111968    -0.38600
N667        N  0.84045913  0.64817228  0.75616883    -0.38000
N668        N  0.74202126  0.28184067  0.95558763    -0.38000
C669        C  0.10844252  0.49993282  0.82994486    -0.04700
C670        C  0.07312779  0.48441903  0.83487324    -0.01800
C671        C  0.05029168  0.50502957  0.85531383     0.03200
C672        C  0.06253899  0.54110228  0.87105688    -0.04700
C673        C  0.09628692  0.55713834  0.86400676    -0.01800
C674        C  0.11923943  0.53669085  0.84367189     0.03200
C675        C  0.06027540  0.44715657  0.81956984     0.37800
C676        C  0.10575220  0.59536903  0.87476961     0.37800
C677        C  0.15234144  0.55429388  0.83427746     0.36200
C678        C  0.01402448  0.48910609  0.85994870     0.36200
N679        N  0.17856594  0.56853053  0.82669946    -0.38600
N680        N  0.98500071  0.47623185  0.86321943    -0.38600
N681        N  0.11311368  0.62592351  0.88246836    -0.38000
N682        N  0.04969627  0.41756116  0.80695765    -0.38000
C683        C  0.34181868  0.45966237  0.88084404    -0.04700
C684        C  0.32311918  0.45476288  0.91482001    -0.01800
C685        C  0.27725444  0.45713373  0.89467462     0.03200
C686        C  0.24992384  0.46397174  0.84049542    -0.04700
C687        C  0.26882050  0.47103069  0.80742667    -0.01800
C688        C  0.31435260  0.46862092  0.82723115     0.03200
C689        C  0.35060993  0.44520240  0.96965946     0.37800
C690        C  0.24132088  0.48158884  0.75290123     0.37800
C691        C  0.33266009  0.47549498  0.79184576     0.36200
C692        C  0.25799715  0.45135579  0.92920662     0.36200
N693        N  0.34677842  0.48072039  0.76312699    -0.38600
N694        N  0.24216854  0.44708509  0.95635615    -0.38600
N695        N  0.21945561  0.49018908  0.70954972    -0.38000
N696        N  0.37244746  0.43739492  0.01337254    -0.38000
C697        C  0.60702136  0.32689284  0.83019136    -0.04700
C698        C  0.57210684  0.31229714  0.83671120    -0.01800
C699        C  0.55045494  0.33378386  0.85783984     0.03200
C700        C  0.56465121  0.36941478  0.87471453    -0.04700
C701        C  0.59875692  0.38431920  0.86724157    -0.01800
C702        C  0.61930685  0.36343290  0.84422094     0.03200
C703        C  0.55902940  0.60823941  0.82322536     0.37800
C704        C  0.61131976  0.42185276  0.88062858     0.37800
C705        C  0.65158752  0.38037517  0.83260326     0.36200
C706        C  0.51345511  0.31918666  0.86217594     0.36200
N707        N  0.67712410  0.39397628  0.82312676    -0.38600
N708        N  0.48367236  0.64089339  0.86503116    -0.38600
N709        N  0.62154482  0.45178740  0.89063159    -0.38000
N710        N  0.54863664  0.57839943  0.81255784    -0.38000
C711        C  0.46247071  0.56442972  0.05263597    -0.04700
C712        C  0.43815034  0.59444074  0.02288655    -0.01800
C713        C  0.41369206  0.61548989  0.04059109     0.03200
C714        C  0.41464708  0.60758470  0.08913936    -0.04700
C715        C  0.44112016  0.57909565  0.12062344    -0.01800
C716        C  0.46447190  0.55724991  0.10218265     0.03200
C717        C  0.44044687  0.60513563  0.97573175     0.37800
C718        C  0.44372452  0.57177128  0.17165393     0.37800
C719        C  0.48971390  0.52690430  0.13391208     0.36200
C720        C  0.38869842  0.64617043  0.00969015     0.36200
N721        N  0.50993647  0.50279054  0.15930077    -0.38600
N722        N  0.36879907  0.67068615  0.98517075    -0.38600
N723        N  0.44608605  0.56598418  0.21249103    -0.38000
N724        N  0.44278724  0.61415822  0.93861077    -0.38000
C725        C  0.77379489  0.48468647  0.06922346    -0.04700
C726        C  0.75199578  0.45108037  0.05993972    -0.01800
C727        C  0.70639554  0.44997032  0.04172516     0.03200
C728        C  0.68229390  0.48248710  0.03203527    -0.04700
C729        C  0.70361810  0.51584428  0.03658114    -0.01800
C730        C  0.74920399  0.51695679  0.05562764     0.03200
C731        C  0.77667525  0.41762840  0.07167634     0.37800
C732        C  0.67849430  0.54906251  0.02058813     0.37800
C733        C  0.77093715  0.55139876  0.06106566     0.36200
C734        C  0.68486777  0.41535735  0.03570941     0.36200
N735        N  0.78867604  0.57869305  0.06576895    -0.38600
N736        N  0.66778646  0.38771496  0.03089305    -0.38600
N737        N  0.65843234  0.57552915  0.00743094    -0.38000
N738        N  0.79634986  0.39096331  0.08082192    -0.38000
C739        C  0.91566817  0.44657609  0.08629605    -0.04700
C740        C  0.93449099  0.41357307  0.11097931    -0.01800
C741        C  0.95650656  0.39178015  0.09077768     0.03200
C742        C  0.95897176  0.40254395  0.04500560    -0.04700
C743        C  0.93944673  0.43533082  0.01983446    -0.01800
C744        C  0.91813004  0.45742429  0.04071205     0.03200
C745        C  0.92932772  0.73451666  0.15562948     0.37800
C746        C  0.94170669  0.44660163  0.97288338     0.37800
C747        C  0.89858057  0.49135243  0.01528078     0.36200
C748        C  0.97494531  0.69077003  0.11580895     0.36200
N749        N  0.88293254  0.51842036  0.99509244    -0.38600
N750        N  0.98964760  0.66336768  0.13559226    -0.38600
N751        N  0.94327094  0.45564661  0.93528523    -0.38000
N752        N  0.92485952  0.72439348  0.19088035    -0.38000
C753        C  0.41223655  0.57042905  0.71877245    -0.04700
C754        C  0.39831385  0.57526778  0.75735772    -0.01800
C755        C  0.41355336  0.55222690  0.80144044     0.03200
C756        C  0.44437350  0.52479415  0.80864373    -0.04700
C757        C  0.46130446  0.52215865  0.77244282    -0.01800
C758        C  0.44486067  0.54455450  0.72731087     0.03200
C759        C  0.36758039  0.60383260  0.75137154     0.37800
C760        C  0.49557263  0.49628424  0.78135566     0.37800
C761        C  0.45986098  0.53947661  0.68836533     0.36200
C762        C  0.39432268  0.55504246  0.83658969     0.36200
N763        N  0.47186193  0.53520167  0.65737582    -0.38600
N764        N  0.37845437  0.55701523  0.86404904    -0.38600
N765        N  0.52294907  0.47570993  0.78850070    -0.38000
N766        N  0.34305634  0.62657574  0.74651049    -0.38000
C767        C  0.18328983  0.61618887  0.54103459    -0.04700
C768        C  0.20423823  0.58222243  0.54871565    -0.01800
C769        C  0.24943358  0.58019470  0.56475874     0.03200
C770        C  0.27427047  0.61203419  0.57255608    -0.04700
C771        C  0.25287528  0.31259149  0.56164084    -0.01800
C772        C  0.20785732  0.31470901  0.54693132     0.03200
C773        C  0.17923107  0.54910425  0.53933315     0.37800
C774        C  0.27740740  0.34558086  0.56758201     0.37800
C775        C  0.18768621  0.34993430  0.54123232     0.36200
C776        C  0.27027239  0.54510267  0.57235056     0.36200
N777        N  0.17183307  0.37807929  0.53708300    -0.38600
N778        N  0.28692261  0.51714770  0.57841209    -0.38600
N779        N  0.29690944  0.37185186  0.57187144    -0.38000
N780        N  0.15932572  0.52267885  0.53183815    -0.38000
C781        C  0.08452570  0.35657530  0.62549279    -0.04700
C782        C  0.11522325  0.34619073  0.67767178    -0.01800
C783        C  0.12913465  0.37116850  0.71944056     0.03200
C784        C  0.11469593  0.40726677  0.70960771    -0.04700
C785        C  0.08207443  0.41727156  0.65884838    -0.01800
C786        C  0.06640738  0.39182865  0.61711873     0.03200
C787        C  0.13430944  0.31024468  0.68900938     0.37800
C788        C  0.06550251  0.45400747  0.64913690     0.37800
C789        C  0.03068527  0.40182536  0.56628062     0.36200
C790        C  0.15788795  0.35949150  0.77314592     0.36200
N791        N  0.00181091  0.41015791  0.52618841    -0.38600
N792        N  0.18039040  0.35016705  0.81598564    -0.38600
N793        N  0.05226942  0.48330300  0.64140496    -0.38000
N794        N  0.14960564  0.61498916  0.69844947    -0.38000
C795        C  0.90886602  0.53068720  0.21666897    -0.04700
C796        C  0.94122721  0.55643170  0.22340858    -0.01800
C797        C  0.95796578  0.58014011  0.26730020     0.03200
C798        C  0.94217193  0.57859774  0.30468236    -0.04700
C799        C  0.91008559  0.55246679  0.29799585    -0.01800
C800        C  0.89418406  0.52836959  0.25489883     0.03200
C801        C  0.95544779  0.56013288  0.18353728     0.37800
C802        C  0.89044394  0.55205832  0.33287741     0.37800
C803        C  0.86203931  0.50133318  0.24972089     0.36200
C804        C  0.99095136  0.60651475  0.27325526     0.36200
N805        N  0.83627904  0.47993384  0.24555620    -0.38600
N806        N  0.01707080  0.62764055  0.27768660    -0.38600
N807        N  0.87439844  0.55194986  0.36023543    -0.38000
N808        N  0.96662634  0.56324518  0.15161976    -0.38000
C809        C  0.74997367  0.63934748  0.33388204    -0.04700
C810        C  0.77771542  0.64076001  0.38898587    -0.01800
C811        C  0.82347329  0.64332145  0.40929019     0.03200
C812        C  0.84188980  0.64443973  0.37459658    -0.04700
C813        C  0.81419610  0.64048820  0.31961474    -0.01800
C814        C  0.76861296  0.63783610  0.29949449     0.03200
C815        C  0.75920579  0.64057989  0.42492254     0.37800
C816        C  0.83245010  0.63796794  0.28337617     0.37800
C817        C  0.74100630  0.63235037  0.24324168     0.36200
C818        C  0.85128987  0.31261017  0.46587521     0.36200
N819        N  0.71916365  0.62785976  0.19844061    -0.38600
N820        N  0.87341633  0.31451775  0.51103274    -0.38600
N821        N  0.84682029  0.63598665  0.25436120    -0.38000
N822        N  0.74401036  0.30668303  0.45315039    -0.38000
C823        C  0.61377788  0.69680064  0.20880899    -0.04700
C824        C  0.57954240  0.35404961  0.15876250    -0.01800
C825        C  0.56570224  0.37866946  0.11619027     0.03200
C826        C  0.58673515  0.41263691  0.12328566    -0.04700
C827        C  0.61973439  0.42241078  0.17449544    -0.01800
C828        C  0.63191204  0.39846531  0.21706951     0.03200
C829        C  0.55944819  0.65197343  0.15062506     0.37800
C830        C  0.64344204  0.45627313  0.18355493     0.37800
C831        C  0.66322726  0.74331168  0.26994836     0.36200
C832        C  0.52956040  0.36888367  0.06553573     0.36200
N833        N  0.68790514  0.75249098  0.31213938    -0.38600
N834        N  0.50055265  0.36051039  0.02554229    -0.38600
N835        N  0.66254990  0.48313526  0.19099197    -0.38000
N836        N  0.54333203  0.62376635  0.14419811    -0.38000
C837        C  0.07699006  0.58340666  0.11763125    -0.04700
C838        C  0.09956696  0.59549661  0.17114259    -0.01800
C839        C  0.11333548  0.57061245  0.21301245     0.03200
C840        C  0.10480111  0.53349628  0.20280024    -0.04700
C841        C  0.07932610  0.52149029  0.15049572    -0.01800
C842        C  0.06510252  0.54626482  0.10804668     0.03200
C843        C  0.11061655  0.63330203  0.18451518     0.37800
C844        C  0.06955330  0.48329372  0.14020808     0.37800
C845        C  0.03805026  0.53311446  0.05479469     0.36200
C846        C  0.13775714  0.58315056  0.26723682     0.36200
N847        N  0.01643017  0.52235155  0.01247616    -0.38600
N848        N  0.15732459  0.59313224  0.31036085    -0.38600
N849        N  0.06179964  0.45282553  0.13196186    -0.38000
N850        N  0.11937488  0.66336709  0.19562807    -0.38000
C851        C  0.10949597  0.44275708  0.33307247    -0.04700
C852        C  0.07679600  0.45771754  0.34355113    -0.01800
C853        C  0.05629650  0.43617575  0.36610549     0.03200
C854        C  0.06966624  0.40006650  0.38070619    -0.04700
C855        C  0.10286045  0.38529056  0.37132011    -0.01800
C856        C  0.12227940  0.40629911  0.34699721     0.03200
C857        C  0.06520428  0.49562259  0.33296785     0.37800
C858        C  0.11559421  0.68111057  0.38435671     0.37800
C859        C  0.15407255  0.38964844  0.33426562     0.36200
C860        C  0.02115353  0.45117861  0.37394234     0.36200
N861        N  0.17934193  0.37628232  0.32406941    -0.38600
N862        N  0.99291516  0.46330151  0.37965812    -0.38600
N863        N  0.12570488  0.65117686  0.39445702    -0.38000
N864        N  0.05620173  0.52590385  0.32484636    -0.38000
C865        C  0.33626219  0.48169544  0.37014768    -0.04700
C866        C  0.30777749  0.47615991  0.31569034    -0.01800
C867        C  0.26219053  0.47652451  0.29626901     0.03200
C868        C  0.24442080  0.48219555  0.33095384    -0.04700
C869        C  0.27271148  0.48670579  0.38551486    -0.01800
C870        C  0.31848524  0.48642699  0.40507766     0.03200
C871        C  0.32512118  0.46903763  0.27934236     0.37800
C872        C  0.25477961  0.49324539  0.42131598     0.37800
C873        C  0.34710917  0.49244859  0.46086980     0.36200
C874        C  0.23355837  0.47020199  0.24044546     0.36200
N875        N  0.36991637  0.49722417  0.50538375    -0.38600
N876        N  0.21073329  0.46526908  0.19597252    -0.38600
N877        N  0.24036976  0.49848239  0.44975567    -0.38000
N878        N  0.33864368  0.46337340  0.25011102    -0.38000
C879        C  0.58226911  0.51954746  0.62009291    -0.04700
C880        C  0.61763552  0.50967017  0.66942593    -0.01800
C881        C  0.63084411  0.53245341  0.71346136     0.03200
C882        C  0.61174541  0.56690991  0.70811062    -0.04700
C883        C  0.57590977  0.57676840  0.65938268    -0.01800
C884        C  0.56090708  0.55300693  0.61561731     0.03200
C885        C  0.64280093  0.47710396  0.67458955     0.37800
C886        C  0.55531892  0.61178493  0.65360452     0.37800
C887        C  0.52357654  0.56324859  0.56625257     0.36200
C888        C  0.66396208  0.52001413  0.76479765     0.36200
N889        N  0.49377043  0.57189537  0.52717262    -0.38600
N890        N  0.69007846  0.50992643  0.80569909    -0.38600
N891        N  0.53883578  0.30635275  0.64899732    -0.38000
N892        N  0.66307695  0.45135149  0.67858884    -0.38000
C893        C  0.40595936  0.69249385  0.21675632    -0.04700
C894        C  0.44055007  0.71638515  0.22555352    -0.01800
C895        C  0.45603325  0.40767815  0.26818619     0.03200
C896        C  0.43674724  0.40883127  0.30200471    -0.04700
C897        C  0.40315920  0.38395792  0.29409385    -0.01800
C898        C  0.38860557  0.35881941  0.25248467     0.03200
C899        C  0.45888958  0.71697324  0.18939075     0.37800
C900        C  0.38096350  0.38574271  0.32614275     0.37800
C901        C  0.35542027  0.66588725  0.24644712     0.36200
C902        C  0.49162793  0.43199359  0.27684567     0.36200
N903        N  0.32898121  0.64498076  0.24163457    -0.38600
N904        N  0.51996207  0.45139839  0.28360495    -0.38600
N905        N  0.36292435  0.38728980  0.35124497    -0.38000
N906        N  0.47353883  0.71747387  0.16058153    -0.38000
C907        C  0.41394106  0.31982835  0.58432776    -0.04700
C908        C  0.43784885  0.34967425  0.61486931    -0.01800
C909        C  0.45602899  0.37490241  0.59391581     0.03200
C910        C  0.45271226  0.36940054  0.54328986    -0.04700
C911        C  0.43021942  0.33860272  0.51369477    -0.01800
C912        C  0.41038163  0.31425640  0.53385360     0.03200
C913        C  0.44333447  0.35475592  0.66777066     0.37800
C914        C  0.42895752  0.33096350  0.46348869     0.37800
C915        C  0.38754440  0.61597411  0.50344159     0.39400
C916        C  0.47651431  0.40736678  0.62381904     0.36200
N917        N  0.36944469  0.59065925  0.47939964    -0.38600
N918        N  0.49254299  0.43334916  0.64753261    -0.38600
N919        N  0.42809629  0.65785434  0.42358850    -0.38000
N920        N  0.44816768  0.35860999  0.71016779    -0.38000
C921        C  0.61215116  0.60492180  0.33448091    -0.04700
C922        C  0.57733762  0.62030557  0.34066774    -0.01800
C923        C  0.55475548  0.59946431  0.36127747     0.03200
C924        C  0.56685499  0.56327086  0.37634410    -0.04700
C925        C  0.60194338  0.54801347  0.37126984    -0.01800
C926        C  0.62470653  0.56868419  0.35086269     0.03200
C927        C  0.56548952  0.65796243  0.32774188     0.37800
C928        C  0.61344885  0.51033161  0.38470404     0.37800
C929        C  0.66027861  0.55186507  0.34554317     0.36200
C930        C  0.51929497  0.61542825  0.36764531     0.36200
N931        N  0.68884377  0.53840705  0.34182974    -0.38600
N932        N  0.49109930  0.62825780  0.37279420    -0.38600
N933        N  0.62274003  0.48025341  0.39472860    -0.38000
N934        N  0.55599800  0.68799776  0.31756458    -0.38000
C935        C  0.76732028  0.45071614  0.56611680    -0.04700
C936        C  0.74590992  0.48277159  0.56766265    -0.01800
C937        C  0.70079254  0.48231361  0.55208858     0.03200
C938        C  0.67651466  0.44997560  0.53345908    -0.04700
C939        C  0.69765183  0.41821064  0.53011476    -0.01800
C940        C  0.74300582  0.41853218  0.54687821     0.03200
C941        C  0.77082746  0.51576919  0.58831710     0.37800
C942        C  0.67272077  0.38525894  0.50923681     0.37800
C943        C  0.76496379  0.38566689  0.54489662     0.36200
C944        C  0.68005092  0.51453768  0.55889838     0.36200
N945        N  0.78299650  0.35962151  0.54384921    -0.38600
N946        N  0.66356166  0.54007683  0.56479970    -0.38600
N947        N  0.65275754  0.35901966  0.49247430    -0.38000
N948        N  0.79080157  0.54203218  0.60480536    -0.38000
C949        C  0.90409231  0.40929169  0.71285713    -0.04700
C950        C  0.88929630  0.41194496  0.75095751    -0.01800
C951        C  0.90573952  0.38850809  0.79467227     0.03200
C952        C  0.93763625  0.36224533  0.80120162    -0.04700
C953        C  0.95434824  0.36108165  0.76475084    -0.01800
C954        C  0.93748461  0.38439924  0.72061792     0.03200
C955        C  0.85643967  0.43855194  0.74491280     0.37800
C956        C  0.98892936  0.33589551  0.77247747     0.37800
C957        C  0.95275760  0.38123762  0.68164781     0.36200
C958        C  0.88731481  0.39001302  0.83079090     0.36200
N959        N  0.96481273  0.37864390  0.65045934    -0.38600
N960        N  0.87244153  0.39108536  0.85935349    -0.38600
N961        N  0.01655752  0.31589971  0.77849536    -0.38000
N962        N  0.83009838  0.45957617  0.74008265    -0.38000
C963        C  0.90776449  0.49444064  0.58229317    -0.04700
C964        C  0.92982663  0.52531640  0.61155481    -0.01800
C965        C  0.95289296  0.54794036  0.59360957     0.03200
C966        C  0.95493736  0.53938642  0.54668162    -0.04700
C967        C  0.93306417  0.50818266  0.51779013    -0.01800
C968        C  0.90923367  0.48606064  0.53524260     0.03200
C969        C  0.92785096  0.53427890  0.65959871     0.37800
C970        C  0.93649596  0.49786091  0.47120170     0.37800
C971        C  0.88707687  0.45405449  0.50542819     0.36200
C972        C  0.97304771  0.58076189  0.62260537     0.36200
N973        N  0.86940767  0.42852656  0.48164863    -0.38600
N974        N  0.98890385  0.60696377  0.64577746    -0.38600
N975        N  0.93935173  0.48945168  0.43415656    -0.38000
N976        N  0.92620957  0.54130623  0.69789032    -0.38000
C977        C  0.88172049  0.76371724  0.66315083     0.80900
N978        N  0.83748494  0.76306619  0.63581299    -0.77400
C979        C  0.81570236  0.78300596  0.59152859     0.83300
N980        N  0.83846813  0.80387346  0.57403761    -0.77400
C981        C  0.88294208  0.80442193  0.60078431     0.83400
N982        N  0.90450266  0.78454221  0.64560684    -0.79100
O983        O  0.50347961  0.86335722  0.36007981    -0.80200
O984        O  0.45549928  0.73944298  0.47616162    -0.64900
O985        O  0.48490284  0.82997279  0.43668190    -1.11500
C986        C  0.62953388  0.78284769  0.51950743     1.06600
O987        O  0.51352326  0.73834652  0.55526206    -0.78100
O988        O  0.56868099  0.79417456  0.58409129    -0.65700
Ni989      Ni  0.45277679  0.84703398  0.36550097     1.34900
C990        C  0.56856546  0.82763685  0.57447494     0.85400
O991        O  0.40941848  0.79839540  0.43070920    -0.78700
O992        O  0.39793563  0.83411118  0.36239302    -0.89000
C993        C  0.47509696  0.72802253  0.52331144     0.85000
O994        O  0.45382388  0.80278611  0.33196068    -0.67200
O995        O  0.61674521  0.76065577  0.54322006    -0.86400
C996        C  0.44922159  0.77050628  0.34342535     0.85800
C997        C  0.38427836  0.81612486  0.38951419     1.07400
H998        H  0.52976899  0.75511631  0.45208726     0.39200
O999        O  0.52862376  0.77217502  0.47688817    -1.09100
O1000       O  0.55947182  0.83995595  0.52903411    -0.65800
Ni1001     Ni  0.54491173  0.81819035  0.46140562     1.26300
O1002       O  0.45259217  0.76149779  0.38789535    -0.66000
O1003       O  0.60458394  0.80564483  0.48584994    -0.78300
C1004       C  0.54123080  0.87382411  0.39419601     0.85200
O1005       O  0.55838795  0.86367740  0.44183063    -0.65500
Ni1006     Ni  0.56281589  0.75125297  0.54506964     1.27400
Ni1007     Ni  0.46890592  0.78462429  0.45460098     1.26100
H1008       H  0.48250192  0.84826528  0.45917135     0.39700
C1009       C  0.12853243  0.84087394  0.24630526     0.80900
N1010       N  0.10770194  0.82039873  0.26693361    -0.77400
C1011       C  0.13132829  0.79857570  0.30922206     0.83300
N1012       N  0.17557839  0.79745214  0.33022229    -0.77400
C1013       C  0.19631681  0.81766176  0.30949556     0.83400
N1014       N  0.17263786  0.83944163  0.26788107    -0.79100
C1015       C  0.63561513  0.00267434  0.25075292     0.80900
N1016       N  0.61358080  0.98306271  0.27064354    -0.77400
C1017       C  0.63565797  0.95982731  0.31158862     0.83300
N1018       N  0.67973681  0.95645654  0.33190844    -0.77400
C1019       C  0.70171471  0.97553958  0.31163997     0.83400
N1020       N  0.67941441  0.99865302  0.27140890    -0.79100
O1021       O  0.00760159  0.69952290  0.36664206    -0.80200
O1022       O  0.96285581  0.90594246  0.48040013    -0.64900
O1023       O  0.99093113  0.99762507  0.44320448    -1.11500
C1024       C  0.13623914  0.95162216  0.52817149     1.06600
O1025       O  0.01800000  0.90694189  0.56153450    -0.78100
O1026       O  0.07122708  0.63070556  0.59043561    -0.65700
Ni1027     Ni  0.95765291  0.01560239  0.37253777     1.34900
C1028       C  0.07256580  0.66392310  0.58071744     0.85400
O1029       O  0.91562104  0.96347198  0.43516978    -0.78700
O1030       O  0.90307035  0.00171796  0.36937797    -0.89000
C1031       C  0.98008546  0.89620469  0.52824993     0.85000
O1032       O  0.95817149  0.97225147  0.33677928    -0.67200
O1033       O  0.12304937  0.93133047  0.55371848    -0.86400
C1034       C  0.95549311  0.93941716  0.34773395     0.85800
C1035       C  0.88990301  0.98157004  0.39492575     1.07400
H1036       H  0.03790015  0.92298110  0.46042498     0.39200
O1037       O  0.03564281  0.94036666  0.48413522    -1.09100
O1038       O  0.06603638  0.67544233  0.53569407    -0.65800
Ni1039     Ni  0.05141791  0.98641616  0.46807424     1.26300
O1040       O  0.96100814  0.92921133  0.39282796    -0.66000
O1041       O  0.11134008  0.97356867  0.49259757    -0.78300
C1042       C  0.04570333  0.70971313  0.39995455     0.85200
O1043       O  0.06436766  0.69864339  0.44732854    -0.65500
Ni1044     Ni  0.06841133  0.92079100  0.55352601     1.27400
Ni1045     Ni  0.97556129  0.95156444  0.45991542     1.26100
H1046       H  0.98834583  0.68191852  0.46631063     0.39700
C1047       C  0.38949305  0.92365220  0.66797383     0.80900
N1048       N  0.34513711  0.92384759  0.64194140    -0.77400
C1049       C  0.32289512  0.94324564  0.59709408     0.83300
N1050       N  0.34556707  0.62939290  0.57804306    -0.77400
C1051       C  0.39003757  0.62941492  0.60360570     0.83400
N1052       N  0.41200926  0.61004562  0.64887244    -0.79100
C1053       C  0.88737630  0.84163350  0.16780394     0.80900
N1054       N  0.91115917  0.82207899  0.15018110    -0.77400
C1055       C  0.89044450  0.80167704  0.10566746     0.83300
N1056       N  0.84611270  0.80051988  0.07916690    -0.77400
C1057       C  0.82227155  0.81981265  0.09668092     0.83400
N1058       N  0.84306956  0.84033607  0.14076405    -0.79100
O1059       O  0.52429519  0.86393791  0.06293289    -0.80200
O1060       O  0.56131839  0.73654540  0.94301776    -0.64900
O1061       O  0.53589915  0.82832807  0.98260532    -1.11500
C1062       C  0.38961906  0.78872118  0.89988384     1.06600
O1063       O  0.50258210  0.73520438  0.86410993    -0.78100
O1064       O  0.45767959  0.79755958  0.83893969    -0.65700
Ni1065     Ni  0.57205284  0.84801976  0.05132875     1.34900
C1066       C  0.45520093  0.83028150  0.85052229     0.85400
O1067       O  0.60931837  0.79412351  0.98544602    -0.78700
O1068       O  0.62483405  0.83582555  0.04825021    -0.89000
C1069       C  0.54140357  0.72567060  0.89566540     0.85000
O1070       O  0.57456040  0.80509439  0.08863929    -0.67200
O1071       O  0.40131841  0.77002252  0.87147646    -0.86400
C1072       C  0.57476642  0.77175464  0.07850609     0.85800
C1073       C  0.63581070  0.81527215  0.02086778     1.07400
H1074       H  0.48824481  0.75326934  0.96683388     0.39200
O1075       O  0.48998283  0.77114839  0.94348667    -1.09100
O1076       O  0.45926867  0.83996303  0.89517894    -0.65800
Ni1077     Ni  0.47626901  0.81715347  0.96247445     1.26300
O1078       O  0.56691546  0.75997937  0.03308572    -0.66000
O1079       O  0.41661551  0.80508528  0.94147181    -0.78300
C1080       C  0.48543168  0.87380259  0.03195760     0.85200
O1081       O  0.46522958  0.86274684  0.98471242    -0.65500
Ni1082     Ni  0.45453847  0.75421416  0.87257754     1.27400
Ni1083     Ni  0.54994478  0.78209078  0.96483536     1.26100
H1084       H  0.53688600  0.84555338  0.95795890     0.39700
C1085       C  0.13635782  0.76780024  0.75199103     0.80900
N1086       N  0.18048636  0.77083590  0.77582922    -0.77400
C1087       C  0.20166486  0.79395286  0.81670296     0.83300
N1088       N  0.17833689  0.81398824  0.83428035    -0.77400
C1089       C  0.13393087  0.81134276  0.81046546     0.83400
N1090       N  0.11311411  0.78826680  0.76912391    -0.79100
C1091       C  0.63332272  0.92682149  0.75169120     0.80900
N1092       N  0.67731568  0.93065413  0.77415818    -0.77400
C1093       C  0.69872746  0.95409716  0.81439947     0.83300
N1094       N  0.67576141  0.64059217  0.83253934    -0.77400
C1095       C  0.63153975  0.63746885  0.81019079     0.83400
N1096       N  0.61033352  0.61386459  0.76950053    -0.79100
C1097       C  0.38483864  0.00357798  0.16802322     0.80900
N1098       N  0.34066408  0.00360925  0.13945985    -0.77400
C1099       C  0.31997124  0.98333810  0.09522150     0.83300
N1100       N  0.34396542  0.96286801  0.07898192    -0.77400
C1101       C  0.38840495  0.96280405  0.10717560     0.83400
N1102       N  0.40873659  0.98304499  0.15180870    -0.79100
O1103       O  0.02091883  0.70307319  0.05526317    -0.80200
O1104       O  0.05663999  0.90600092  0.93912935    -0.64900
O1105       O  0.03275580  0.99900544  0.97664217    -1.11500
C1106       C  0.88620628  0.95861311  0.89401548     1.06600
O1107       O  0.00030636  0.90760489  0.85847614    -0.78100
O1108       O  0.95169858  0.63490098  0.83136372    -0.65700
Ni1109     Ni  0.06875113  0.01838981  0.04559740     1.34900
C1110       C  0.95017115  0.66771703  0.84327964     0.85400
O1111       O  0.10598246  0.96302057  0.98121084    -0.78700
O1112       O  0.12191247  0.00404908  0.04481082    -0.89000
C1113       C  0.03813539  0.89654174  0.89114978     0.85000
O1114       O  0.06774355  0.97606555  0.08210385    -0.67200
O1115       O  0.89819496  0.93886458  0.86681807    -0.86400
C1116       C  0.06781825  0.94258790  0.07297468     0.85800
C1117       C  0.13285188  0.98339285  0.01751120     1.07400
H1118       H  0.98372288  0.92466194  0.96093308     0.39200
O1119       O  0.98608628  0.94221382  0.93767984    -1.09100
O1120       O  0.95639296  0.67767183  0.88866788    -0.65800
Ni1121     Ni  0.97267908  0.98855953  0.95574133     1.26300
O1122       O  0.06197497  0.93065729  0.02837489    -0.66000
O1123       O  0.91268400  0.97697704  0.93377144    -0.78300
C1124       C  0.98197347  0.71252589  0.02405080     0.85200
O1125       O  0.96174600  0.70118375  0.97701668    -0.65500
Ni1126     Ni  0.95147753  0.92477706  0.86692695     1.27400
Ni1127     Ni  0.04624409  0.95214642  0.95998053     1.26100
H1128       H  0.03437747  0.68257301  0.95203638     0.39700
C1129       C  0.27137117  0.98272039  0.06715299    -0.04700
C1130       C  0.24851512  0.94977085  0.05918066    -0.01800
C1131       C  0.20269152  0.94978658  0.03945936     0.03200
C1132       C  0.17963819  0.98286573  0.02973500    -0.04700
C1133       C  0.20230227  0.01569630  0.03552128    -0.01800
C1134       C  0.24784796  0.01559436  0.05379198     0.03200
C1135       C  0.27252655  0.91603620  0.07573204     0.37800
C1136       C  0.17872708  0.71639261  0.02256412     0.37800
C1137       C  0.27073979  0.71618281  0.05983711     0.36200
C1138       C  0.17981150  0.91571639  0.03209099     0.36200
N1139       N  0.28925702  0.74313765  0.06510491    -0.38600
N1140       N  0.16164232  0.88848519  0.02598997    -0.38600
N1141       N  0.15989580  0.74350839  0.01230745    -0.38000
N1142       N  0.29183889  0.88924928  0.08961752    -0.38000
C1143       C  0.74664136  0.95883665  0.83634408    -0.04700
C1144       C  0.77493069  0.62296823  0.89121423    -0.01800
C1145       C  0.82077145  0.62347656  0.91082663     0.03200
C1146       C  0.83842967  0.96111722  0.87572418    -0.04700
C1147       C  0.80987141  0.96654792  0.82134894    -0.01800
C1148       C  0.76435639  0.96463793  0.80167500     0.03200
C1149       C  0.75687710  0.61846567  0.92724779     0.37800
C1150       C  0.82711903  0.97482995  0.78526492     0.37800
C1151       C  0.73574343  0.96905503  0.74545344     0.36200
C1152       C  0.84949621  0.61773698  0.96661031     0.36200
N1153       N  0.71302265  0.97231518  0.70061769    -0.38600
N1154       N  0.87228283  0.61299578  0.01111968    -0.38600
N1155       N  0.84046001  0.98152173  0.75617176    -0.38000
N1156       N  0.74202022  0.61520500  0.95559053    -0.38000
C1157       C  0.10843670  0.83327335  0.82994187    -0.04700
C1158       C  0.07312375  0.81775820  0.83487275    -0.01800
C1159       C  0.05029042  0.83836695  0.85531870     0.03200
C1160       C  0.06253792  0.87443940  0.87106292    -0.04700
C1161       C  0.09628289  0.89047721  0.86400870    -0.01800
C1162       C  0.11923297  0.87003137  0.84366906     0.03200
C1163       C  0.06026910  0.78049674  0.81956435     0.37800
C1164       C  0.10574691  0.92870806  0.87477167     0.37800
C1165       C  0.15233041  0.88763632  0.83426800     0.36200
C1166       C  0.01402534  0.82244223  0.85995703     0.36200
N1167       N  0.17855082  0.90187470  0.82668410    -0.38600
N1168       N  0.98500333  0.80956712  0.86323073    -0.38600
N1169       N  0.11310699  0.95926271  0.88247050    -0.38000
N1170       N  0.04968754  0.75090235  0.80694751    -0.38000
C1171       C  0.34181300  0.79299491  0.88084541    -0.04700
C1172       C  0.32311205  0.78810240  0.91482124    -0.01800
C1173       C  0.27724717  0.79047518  0.89467384     0.03200
C1174       C  0.24991801  0.79731054  0.84049342    -0.04700
C1175       C  0.26881637  0.80436346  0.80742481    -0.01800
C1176       C  0.31434829  0.80194984  0.82723065     0.03200
C1177       C  0.35060139  0.77854776  0.96966338     0.37800
C1178       C  0.24131875  0.81491902  0.75289769     0.37800
C1179       C  0.33265697  0.80881647  0.79184456     0.36200
C1180       C  0.25798835  0.78470081  0.92920507     0.36200
N1181       N  0.34677655  0.81403578  0.76312557    -0.38600
N1182       N  0.24215901  0.78043230  0.95635429    -0.38600
N1183       N  0.21945519  0.82351710  0.70954478    -0.38000
N1184       N  0.37243768  0.77074541  0.01337886    -0.38000
C1185       C  0.60701840  0.66022930  0.83019109    -0.04700
C1186       C  0.57209593  0.64563587  0.83669699    -0.01800
C1187       C  0.55044291  0.66712202  0.85782469     0.03200
C1188       C  0.56464597  0.70274958  0.87471341    -0.04700
C1189       C  0.59875799  0.71765260  0.86725183    -0.01800
C1190       C  0.61930925  0.69676728  0.84423189     0.03200
C1191       C  0.55903789  0.94156877  0.82323422     0.37800
C1192       C  0.61132464  0.75518472  0.88064662     0.37800
C1193       C  0.65159643  0.71370926  0.83262555     0.36200
C1194       C  0.51343390  0.65252801  0.86214370     0.36200
N1195       N  0.67713820  0.72731025  0.82315812    -0.38600
N1196       N  0.48369124  0.97421936  0.86505914    -0.38600
N1197       N  0.62155294  0.78511834  0.89065445    -0.38000
N1198       N  0.54864804  0.91172783  0.81257125    -0.38000
C1199       C  0.46246405  0.89775841  0.05263932    -0.04700
C1200       C  0.43814294  0.92776893  0.02288933    -0.01800
C1201       C  0.41368573  0.94881848  0.04059465     0.03200
C1202       C  0.41464138  0.94091337  0.08914321    -0.04700
C1203       C  0.44111334  0.91242363  0.12062662    -0.01800
C1204       C  0.46446502  0.89057805  0.10218573     0.03200
C1205       C  0.44043634  0.93846218  0.97573193     0.37800
C1206       C  0.44371604  0.90509814  0.17165603     0.37800
C1207       C  0.48970591  0.86023166  0.13391417     0.36200
C1208       C  0.38869242  0.97949928  0.00969405     0.36200
N1209       N  0.50992736  0.83611721  0.15930208    -0.38600
N1210       N  0.36879336  0.00401521  0.98517501    -0.38600
N1211       N  0.44607598  0.89931005  0.21249209    -0.38000
N1212       N  0.44277372  0.94748301  0.93860835    -0.38000
C1213       C  0.77379027  0.81801949  0.06922849    -0.04700
C1214       C  0.75198896  0.78441345  0.05992986    -0.01800
C1215       C  0.70638829  0.78330332  0.04171296     0.03200
C1216       C  0.68228845  0.81582012  0.03203766    -0.04700
C1217       C  0.70361481  0.84917821  0.03659822    -0.01800
C1218       C  0.74920091  0.85029075  0.05564677     0.03200
C1219       C  0.77666650  0.75096092  0.07165495     0.37800
C1220       C  0.67849279  0.88239777  0.02061692     0.37800
C1221       C  0.77093540  0.88473427  0.06110221     0.36200
C1222       C  0.68485813  0.74868942  0.03567813     0.36200
N1223       N  0.78867423  0.91203027  0.06581940    -0.38600
N1224       N  0.66777503  0.72104616  0.03084574    -0.38600
N1225       N  0.65843228  0.90886550  0.00746883    -0.38000
N1226       N  0.79633946  0.72429534  0.08079189    -0.38000
C1227       C  0.91566233  0.77990812  0.08629389    -0.04700
C1228       C  0.93449203  0.74690798  0.11098202    -0.01800
C1229       C  0.95650671  0.72511481  0.09077915     0.03200
C1230       C  0.95896592  0.73587592  0.04500212    -0.04700
C1231       C  0.93943468  0.76866016  0.01982681    -0.01800
C1232       C  0.91811743  0.79075328  0.04070438     0.03200
C1233       C  0.92931035  0.06785368  0.15561206     0.37800
C1234       C  0.94168978  0.77992926  0.97287206     0.37800
C1235       C  0.89856130  0.82467841  0.01526798     0.36200
C1236       C  0.97493276  0.02410619  0.11579901     0.36200
N1237       N  0.88290800  0.85174392  0.99507538    -0.38600
N1238       N  0.98963096  0.99670250  0.13558061    -0.38600
N1239       N  0.94325050  0.78897302  0.93527126    -0.38000
N1240       N  0.92483476  0.05772900  0.19085707    -0.38000
C1241       C  0.41223426  0.90376076  0.71877741    -0.04700
C1242       C  0.39830564  0.90859631  0.75735804    -0.01800
C1243       C  0.41354388  0.88555517  0.80144039     0.03200
C1244       C  0.44436792  0.85812517  0.80864782    -0.04700
C1245       C  0.46130386  0.85549232  0.77245171    -0.01800
C1246       C  0.44486199  0.87788861  0.72732030     0.03200
C1247       C  0.36756762  0.93715811  0.75136780     0.37800
C1248       C  0.49557535  0.82962022  0.78136926     0.37800
C1249       C  0.45986807  0.87281337  0.68837964     0.36200
C1250       C  0.39430909  0.88836781  0.83658568     0.36200
N1251       N  0.47187361  0.86854058  0.65739398    -0.38600
N1252       N  0.37843804  0.89033835  0.86404233    -0.38600
N1253       N  0.52295455  0.80904782  0.78851825    -0.38000
N1254       N  0.34303977  0.95989867  0.74650362    -0.38000
C1255       C  0.18329236  0.94952199  0.54102959    -0.04700
C1256       C  0.20424166  0.91555550  0.54871543    -0.01800
C1257       C  0.24943697  0.91352773  0.56475869     0.03200
C1258       C  0.27427337  0.94536704  0.57255269    -0.04700
C1259       C  0.25287525  0.64592423  0.56164902    -0.01800
C1260       C  0.20785832  0.64804226  0.54694444     0.03200
C1261       C  0.17923586  0.88243705  0.53933849     0.37800
C1262       C  0.27740721  0.67891335  0.56758779     0.37800
C1263       C  0.18768908  0.68326767  0.54125258     0.36200
C1264       C  0.27027637  0.87843568  0.57235384     0.36200
N1265       N  0.17183761  0.71141276  0.53710947    -0.38600
N1266       N  0.28692724  0.85048082  0.57841785    -0.38600
N1267       N  0.29690916  0.70518401  0.57187477    -0.38000
N1268       N  0.15933196  0.85601126  0.53184839    -0.38000
C1269       C  0.08452123  0.68991271  0.62549508    -0.04700
C1270       C  0.11522016  0.67953031  0.67767445    -0.01800
C1271       C  0.12913017  0.70450935  0.71944136     0.03200
C1272       C  0.11468989  0.74060713  0.70960572    -0.04700
C1273       C  0.08206759  0.75060999  0.65884589    -0.01800
C1274       C  0.06640077  0.72516533  0.61711857     0.03200
C1275       C  0.13430970  0.64358549  0.68901410     0.37800
C1276       C  0.06549502  0.78734568  0.64913132     0.37800
C1277       C  0.03067670  0.73515937  0.56628050     0.36200
C1278       C  0.15788406  0.69283431  0.77314759     0.36200
N1279       N  0.00180060  0.74348968  0.52618839    -0.38600
N1280       N  0.18038702  0.68351165  0.81598810    -0.38600
N1281       N  0.05226162  0.81664110  0.64139676    -0.38000
N1282       N  0.14959789  0.94831166  0.69845569    -0.38000
C1283       C  0.90886367  0.86401995  0.21666978    -0.04700
C1284       C  0.94121762  0.88976946  0.22340138    -0.01800
C1285       C  0.95795677  0.91347887  0.26729197     0.03200
C1286       C  0.94216845  0.91193410  0.30467942    -0.04700
C1287       C  0.91008536  0.88580097  0.29799716    -0.01800
C1288       C  0.89418621  0.86170086  0.25490359     0.03200
C1289       C  0.95542853  0.89347523  0.18352194     0.37800
C1290       C  0.89044280  0.88539413  0.33287779     0.37800
C1291       C  0.86204820  0.83465999  0.24973288     0.36200
C1292       C  0.99093626  0.93985749  0.27323950     0.36200
N1293       N  0.83629361  0.81325681  0.24557422    -0.38600
N1294       N  0.01705063  0.96098656  0.27766457    -0.38600
N1295       N  0.87439580  0.88528747  0.36023423    -0.38000
N1296       N  0.96659851  0.89659145  0.15159725    -0.38000
C1297       C  0.74997677  0.97267396  0.33388007    -0.04700
C1298       C  0.77771689  0.97408837  0.38898421    -0.01800
C1299       C  0.82347478  0.97665210  0.40929034     0.03200
C1300       C  0.84189266  0.97777141  0.37459828    -0.04700
C1301       C  0.81420075  0.97381797  0.31961631    -0.01800
C1302       C  0.76861782  0.97116216  0.29949447     0.03200
C1303       C  0.75920572  0.97390765  0.42491931     0.37800
C1304       C  0.83245629  0.97130025  0.28337907     0.37800
C1305       C  0.74101323  0.96567176  0.24324225     0.36200
C1306       C  0.85128824  0.64593770  0.46587432     0.36200
N1307       N  0.71917229  0.96117699  0.19844180    -0.38600
N1308       N  0.87341399  0.64784348  0.51103218    -0.38600
N1309       N  0.84682732  0.96932126  0.25436476    -0.38000
N1310       N  0.74400870  0.64001112  0.45314768    -0.38000
C1311       C  0.61378579  0.03013060  0.20880207    -0.04700
C1312       C  0.57954423  0.68737356  0.15875587    -0.01800
C1313       C  0.56570277  0.71199521  0.11618588     0.03200
C1314       C  0.58672796  0.74596690  0.12328708    -0.04700
C1315       C  0.61971845  0.75574327  0.17450128    -0.01800
C1316       C  0.63189707  0.73179522  0.21707261     0.03200
C1317       C  0.55944531  0.98530927  0.15061976     0.37800
C1318       C  0.64341642  0.78961135  0.18356951     0.37800
C1319       C  0.66324798  0.07663670  0.26993942     0.36200
C1320       C  0.52956706  0.70220687  0.06552782     0.36200
N1321       N  0.68793199  0.08581333  0.31212927    -0.38600
N1322       N  0.50056416  0.69383163  0.02553152    -0.38600
N1323       N  0.66251665  0.81647814  0.19101438    -0.38000
N1324       N  0.54332419  0.95710426  0.14419241    -0.38000
C1325       C  0.07699061  0.91674494  0.11763792    -0.04700
C1326       C  0.09956461  0.92883484  0.17114967    -0.01800
C1327       C  0.11333303  0.90395033  0.21301939     0.03200
C1328       C  0.10480082  0.86683395  0.20280682    -0.04700
C1329       C  0.07932820  0.85482793  0.15050197    -0.01800
C1330       C  0.06510498  0.87960258  0.10805310     0.03200
C1331       C  0.11061061  0.96664063  0.18452317     0.37800
C1332       C  0.06955739  0.81663112  0.14021388     0.37800
C1333       C  0.03805518  0.86645141  0.05480093     0.36200
C1334       C  0.13775220  0.91648825  0.26724416     0.36200
N1335       N  0.01643713  0.85568775  0.01248231    -0.38600
N1336       N  0.15731762  0.92646956  0.31036864    -0.38600
N1337       N  0.06180519  0.78616278  0.13196714    -0.38000
N1338       N  0.11936633  0.99670588  0.19563728    -0.38000
C1339       C  0.10949654  0.77609269  0.33307885    -0.04700
C1340       C  0.07678783  0.79104932  0.34354499    -0.01800
C1341       C  0.05628776  0.76950611  0.36609739     0.03200
C1342       C  0.06966582  0.73339975  0.38071010    -0.04700
C1343       C  0.10286864  0.71862784  0.37133703    -0.01800
C1344       C  0.12228787  0.73963718  0.34701512     0.03200
C1345       C  0.06518720  0.82895216  0.33295102     0.37800
C1346       C  0.11558935  0.01444335  0.38435077     0.37800
C1347       C  0.15408971  0.72298904  0.33429639     0.36200
C1348       C  0.02113544  0.78450458  0.37391953     0.36200
N1349       N  0.17936612  0.70962472  0.32411076    -0.38600
N1350       N  0.99288948  0.79662396  0.37962306    -0.38600
N1351       N  0.12569768  0.98450891  0.39444758    -0.38000
N1352       N  0.05617737  0.85923168  0.32482112    -0.38000
C1353       C  0.33626237  0.81503156  0.37014972    -0.04700
C1354       C  0.30777689  0.80949927  0.31569177    -0.01800
C1355       C  0.26219002  0.80986370  0.29627136     0.03200
C1356       C  0.24442094  0.81553184  0.33095752    -0.04700
C1357       C  0.27271238  0.82003920  0.38551894    -0.01800
C1358       C  0.31848608  0.81976032  0.40508091     0.03200
C1359       C  0.32511967  0.80238109  0.27934179     0.37800
C1360       C  0.25478132  0.82657629  0.42132148     0.37800
C1361       C  0.34711053  0.82577955  0.46087350     0.36200
C1362       C  0.23355744  0.80354422  0.24044711     0.36200
N1363       N  0.36991792  0.83055345  0.50538782    -0.38600
N1364       N  0.21073238  0.79861377  0.19597353    -0.38600
N1365       N  0.24037195  0.83181134  0.44976210    -0.38000
N1366       N  0.33864179  0.79672045  0.25010916    -0.38000
C1367       C  0.58227021  0.85287868  0.62008914    -0.04700
C1368       C  0.61763819  0.84300185  0.66942107    -0.01800
C1369       C  0.63084890  0.86578576  0.71345630     0.03200
C1370       C  0.61174850  0.90024157  0.70810669    -0.04700
C1371       C  0.57591084  0.91009908  0.65937990    -0.01800
C1372       C  0.56090763  0.88633764  0.61561452     0.03200
C1373       C  0.64280233  0.81043502  0.67458352     0.37800
C1374       C  0.55531844  0.94511477  0.65360271     0.37800
C1375       C  0.52357577  0.89657870  0.56625068     0.36200
C1376       C  0.66397102  0.85334790  0.76479106     0.36200
N1377       N  0.49376862  0.90522509  0.52717149    -0.38600
N1378       N  0.69009109  0.84326138  0.80569119    -0.38600
N1379       N  0.53883646  0.63969070  0.64900036    -0.38000
N1380       N  0.66307708  0.78468192  0.67858182    -0.38000
C1381       C  0.40595662  0.02582328  0.21675946    -0.04700
C1382       C  0.44054184  0.04971855  0.22554935    -0.01800
C1383       C  0.45603582  0.74100930  0.26818852     0.03200
C1384       C  0.43674365  0.74216680  0.30200017    -0.04700
C1385       C  0.40314994  0.71729798  0.29408270    -0.01800
C1386       C  0.38859407  0.69216147  0.25247065     0.03200
C1387       C  0.45887156  0.05031241  0.18937673     0.37800
C1388       C  0.38095290  0.71908445  0.32613002     0.37800
C1389       C  0.35542665  0.99921082  0.24645940     0.36200
C1390       C  0.49163619  0.76532035  0.27685573     0.36200
N1391       N  0.32899054  0.97830218  0.24164993    -0.38600
N1392       N  0.51997486  0.78472176  0.28362141    -0.38600
N1393       N  0.36291338  0.72063231  0.35123177    -0.38000
N1394       N  0.47351212  0.05081789  0.16055882    -0.38000
C1395       C  0.41393505  0.65316363  0.58432008    -0.04700
C1396       C  0.43784101  0.68301072  0.61486022    -0.01800
C1397       C  0.45602251  0.70823783  0.59390701     0.03200
C1398       C  0.45270884  0.70273386  0.54328311    -0.04700
C1399       C  0.43021583  0.67193602  0.51368829    -0.01800
C1400       C  0.41037663  0.64759068  0.53384660     0.03200
C1401       C  0.44332284  0.68809490  0.66775947     0.37800
C1402       C  0.42895451  0.66429627  0.46348265     0.37800
C1403       C  0.38755079  0.94930389  0.50344745     0.39400
C1404       C  0.47650553  0.74070361  0.62380765     0.36200
N1405       N  0.36945043  0.92398947  0.47940475    -0.38600
N1406       N  0.49253205  0.76668732  0.64751875    -0.38600
N1407       N  0.42810720  0.99118190  0.42359772    -0.38000
N1408       N  0.44815272  0.69195110  0.71015483    -0.38000
C1409       C  0.61215035  0.93825213  0.33447164    -0.04700
C1410       C  0.57733373  0.95363570  0.34065236    -0.01800
C1411       C  0.55475168  0.93279575  0.36126377     0.03200
C1412       C  0.56685393  0.89660362  0.37633776    -0.04700
C1413       C  0.60194437  0.88134621  0.37126797    -0.01800
C1414       C  0.62470790  0.90201576  0.35086010     0.03200
C1415       C  0.56548221  0.99129123  0.32771855     0.37800
C1416       C  0.61345110  0.84366498  0.38470619     0.37800
C1417       C  0.66028308  0.88519643  0.34554742     0.36200
C1418       C  0.51928849  0.94875988  0.36762584     0.36200
N1419       N  0.68885078  0.87173807  0.34183995    -0.38600
N1420       N  0.49109071  0.96158984  0.37276994    -0.38600
N1421       N  0.62274342  0.81358719  0.39473314    -0.38000
N1422       N  0.55598792  0.02132548  0.31753475    -0.38000
C1423       C  0.76731999  0.78404774  0.56610907    -0.04700
C1424       C  0.74590971  0.81610381  0.56765287    -0.01800
C1425       C  0.70079234  0.81564628  0.55207944     0.03200
C1426       C  0.67651429  0.78330814  0.53345226    -0.04700
C1427       C  0.69765113  0.75154275  0.53010884    -0.01800
C1428       C  0.74300517  0.75186370  0.54687232     0.03200
C1429       C  0.77082735  0.84910165  0.58830479     0.37800
C1430       C  0.67271952  0.71859123  0.50923138     0.37800
C1431       C  0.76496278  0.71899758  0.54489303     0.36200
C1432       C  0.68005089  0.84787108  0.55888737     0.36200
N1433       N  0.78299500  0.69295140  0.54384752    -0.38600
N1434       N  0.66356172  0.87341082  0.56478722    -0.38600
N1435       N  0.65275566  0.69235223  0.49246895    -0.38000
N1436       N  0.79080153  0.87536484  0.60479102    -0.38000
C1437       C  0.90409074  0.74262184  0.71285088    -0.04700
C1438       C  0.88929580  0.74527682  0.75095203    -0.01800
C1439       C  0.90573766  0.72183962  0.79466649     0.03200
C1440       C  0.93763392  0.69557618  0.80119645    -0.04700
C1441       C  0.95434517  0.69441107  0.76474488    -0.01800
C1442       C  0.93748137  0.71772784  0.72061103     0.03200
C1443       C  0.85644206  0.77188632  0.74490866     0.37800
C1444       C  0.98892539  0.66922405  0.77247116     0.37800
C1445       C  0.95275229  0.71456376  0.68163924     0.36200
C1446       C  0.88731143  0.72334458  0.83078352     0.36200
N1447       N  0.96480556  0.71196800  0.65044926    -0.38600
N1448       N  0.87243653  0.72441674  0.85934447    -0.38600
N1449       N  0.01655272  0.64922751  0.77848846    -0.38000
N1450       N  0.83010339  0.79291288  0.74007970    -0.38000
C1451       C  0.90776706  0.82776972  0.58228857    -0.04700
C1452       C  0.92983699  0.85864082  0.61155751    -0.01800
C1453       C  0.95290459  0.88126507  0.59361438     0.03200
C1454       C  0.95494348  0.87271549  0.54668170    -0.04700
C1455       C  0.93306559  0.84151475  0.51778524    -0.01800
C1456       C  0.90923199  0.81939356  0.53523426     0.03200
C1457       C  0.92786822  0.86759837  0.65960717     0.37800
C1458       C  0.93649758  0.83119427  0.47119647     0.37800
C1459       C  0.88706779  0.78739206  0.50541225     0.36200
C1460       C  0.97306747  0.91408198  0.62261860     0.36200
N1461       N  0.86939247  0.76186804  0.48162608    -0.38600
N1462       N  0.98893042  0.94027996  0.64579788    -0.38600
N1463       N  0.93935475  0.82278605  0.43415188    -0.38000
N1464       N  0.92623255  0.87462155  0.69790353    -0.38000
loop_ 
_geom_bond_atom_site_label_1 
_geom_bond_atom_site_label_2 
_geom_bond_distance 
_geom_bond_site_symmetry_2 
_ccdc_geom_bond_type 
C1            N2   1.355       .  A
C1            N6   1.360       .  A
C1          C461   1.487       .  S
N2            C3   1.353       .  A
C3            N4   1.359       .  A
C3          C447   1.482       .  S
N4            C5   1.362       .  A
C5            N6   1.362       .  A
C5          C475   1.484       .  S
O7          Ni13   1.934       .  S
O7           C28   1.271       .  A
O8          Ni31   1.916       .  S
O8           C17   1.269       .  A
O9          Ni13   1.919       .  S
O9          Ni31   1.914       .  S
O9          Ni25   1.906       .  S
O9           H32   0.966       .  S
C10         C450   1.484       .  S
C10          O27   1.269       .  A
C10          O19   1.274       .  A
O11         Ni30   1.926       .  S
O11          C17   1.270       .  A
O12         Ni30   1.898       .  S
O12          C14   1.269       .  A
Ni13         O16   1.922       .  S
Ni13         O18   1.908       .  S
C14         C391   1.492       .  S
C14          O24   1.275       .  A
O15         Ni31   1.912       .  S
O15          C21   1.274       .  A
O16          C21   1.275       .  A
C17         C422   1.493       .  S
O18          C20   1.270       .  A
O19         Ni30   1.928       .  S
C20         C408   1.489       .  S
C20          O26   1.272       .  A
C21         C377   1.487       .  S
H22          O23   0.966       .  S
O23         Ni31   1.914       .  S
O23         Ni25   1.912       .  S
O23         Ni30   1.913       .  S
O24         Ni25   1.937       .  S
Ni25         O29   1.903       .  S
Ni25         O27   1.904       .  S
O26         Ni31   1.924       .  S
C28         C436   1.482       .  S
C28          O29   1.266       .  A
C33          N34   1.361       .  A
C33          N38   1.354       .  A
C33         C352   1.482       .  S
N34          C35   1.366       .  A
C35          N36   1.360       .  A
C35         C363   1.492       .  S
N36          C37   1.355       .  A
C37          N38   1.353       .  A
C37         C380   1.484       .  S
C39          N40   1.360       .  A
C39          N44   1.354       .  A
C39         C335   1.484       .  S
N40          C41   1.365       .  A
C41          N42   1.361       .  A
C41         C433   1.497       .  S
N42          C43   1.356       .  A
C43          N44   1.352       .  A
C43         C321   1.488       .  S
O45       Ni1027   1.928   1_455  S
O45          C66   1.270       .  A
O46         Ni69   1.908       .  S
O46          C55   1.267       .  A
O47         Ni51   1.922       .  S
O47         Ni69   1.915       .  S
O47         Ni63   1.916   1_655  S
O47         H558   0.964       .  S
C48         C279   1.496       .  S
C48          O65   1.273       .  A
C48          O57   1.277       .  A
O49         Ni68   1.937       .  S
O49          C55   1.272   1_455  A
O50       Ni1044   1.896       .  S
O50          C52   1.267       .  A
Ni51         O54   1.922       .  S
Ni51         O56   1.909       .  S
Ni51        O533   1.928   1_655  S
C52         C293   1.499   1_565  S
C52          O62   1.278   1_565  A
O53         Ni69   1.905       .  S
O53          C59   1.270       .  A
O54          C59   1.273       .  A
C55         C478   1.495       .  S
O56          C58   1.270       .  A
O57         Ni68   1.932       .  S
C58         C310   1.496       .  S
C58          O64   1.275       .  A
C59         C324   1.489       .  S
H60          O61   0.966       .  S
O61         Ni69   1.906   1_455  S
O61         Ni63   1.913       .  S
O61         Ni68   1.914       .  S
O62       Ni1039   1.946   1_545  S
Ni63         O65   1.914       .  S
Ni63        O550   1.946       .  S
Ni63        O555   1.912       .  S
O64         Ni69   1.933       .  S
C66         C366   1.483       .  S
C66          O67   1.269       .  A
O67       Ni1039   1.912   1_545  S
Ni68        O538   1.896       .  S
H70        O1023   0.964   1_545  S
C71          N72   1.357       .  A
C71         N564   1.360       .  A
C71         C265   1.488       .  S
N72          C73   1.355       .  A
C73         N562   1.358       .  A
C73         C282   1.492       .  S
N74          C75   1.361       .  A
N74        C1049   1.358       .  A
C75          N76   1.362       .  A
C75         C419   1.484       .  S
N76        C1047   1.360       .  A
C77          N78   1.361       .  A
C77          N82   1.358       .  A
C77         C307   1.492       .  S
N78          C79   1.362       .  A
C79          N80   1.358       .  A
C79         C251   1.477       .  S
N80          C81   1.355       .  A
C81          N82   1.356       .  A
C81         C237   1.485       .  S
O83         Ni89   1.929       .  S
O83         C104   1.270       .  A
O84        Ni107   1.903       .  S
O84          C93   1.267       .  A
O85         Ni89   1.915   1_556  S
O85        Ni107   1.913       .  S
O85        Ni101   1.912       .  S
O85         H108   0.966       .  S
C86         C195   1.490       .  S
C86         O103   1.271       .  A
C86          O95   1.273       .  A
O87        Ni106   1.926       .  S
O87          C93   1.269       .  A
O88        Ni106   1.904       .  S
O88          C90   1.269       .  A
Ni89         O92   1.927       .  S
Ni89         O94   1.897       .  S
C90         C268   1.493       .  S
C90         O100   1.274       .  A
O91        Ni107   1.908       .  S
O91          C97   1.269   1_556  A
O92          C97   1.274       .  A
C93         C212   1.479       .  S
O94          C96   1.268       .  A
O95        Ni106   1.922       .  S
C96         C338   1.496       .  S
C96         O102   1.277       .  A
C97         C240   1.488       .  S
H98          O99   0.965       .  S
O99        Ni107   1.914       .  S
O99        Ni101   1.914       .  S
O99        Ni106   1.922       .  S
O100       Ni101   1.931       .  S
Ni101       O105   1.905       .  S
Ni101       O103   1.915       .  S
O102       Ni107   1.944   1_554  S
C104        C223   1.489       .  S
C104        O105   1.267   1_554  A
C109        N110   1.355       .  A
C109        N114   1.356       .  A
C109        C296   1.482       .  S
N110        C111   1.355       .  A
C111        N112   1.358       .  A
C111        C198   1.485       .  S
N112        C113   1.363       .  A
C113        N114   1.361       .  A
C113        C181   1.489       .  S
C115        N116   1.355       .  A
C115        N608   1.360       .  A
C115        C394   1.487       .  S
N116        C117   1.353       .  A
C117        N606   1.354       .  A
C117        C167   1.484       .  S
N118        C119   1.360       .  A
N118       C1093   1.354       .  A
C119        N120   1.363       .  A
C119        C209   1.490       .  S
N120       C1091   1.360       .  A
C121        N122   1.355       .  A
C121        N126   1.358       .  A
C121        C405   1.486       .  S
N122        C123   1.354       .  A
C123        N124   1.360       .  A
C123        C153   1.487       .  S
N124        C125   1.362       .  A
C125        N126   1.360       .  A
C125        C226   1.482       .  S
O127      Ni1109   1.925       .  S
O127        C148   1.269   1_455  A
O128       Ni151   1.899       .  S
O128        C137   1.265       .  A
O129       Ni133   1.915   1_556  S
O129       Ni151   1.914       .  S
O129       Ni145   1.917   1_455  S
O129        H640   0.966       .  S
C130        C170   1.487       .  S
C130        O147   1.273       .  A
C130        O139   1.274       .  A
O131       Ni150   1.928   1_455  S
O131        C137   1.269       .  A
O132      Ni1126   1.909       .  S
O132        C134   1.269   1_565  A
Ni133       O136   1.929       .  S
Ni133       O138   1.896       .  S
Ni133       O615   1.925       .  S
C134        C464   1.491       .  S
C134        O144   1.272       .  A
O135       Ni151   1.907       .  S
O135        C141   1.268   1_556  A
O136        C141   1.274       .  A
C137        C184   1.475       .  S
O138        C140   1.266       .  A
O139       Ni150   1.919       .  S
C140        C349   1.511       .  S
C140        O146   1.278       .  A
C141        C156   1.490       .  S
H142        O143   0.963       .  S
O143       Ni151   1.908   1_655  S
O143       Ni145   1.911       .  S
O143       Ni150   1.921       .  S
O144      Ni1121   1.924   1_545  S
Ni145       O147   1.917       .  S
Ni145       O632   1.924       .  S
Ni145       O637   1.904       .  S
O146       Ni151   1.946   1_554  S
C148        C254   1.482       .  S
C148        O149   1.265   1_554  A
O149      Ni1121   1.904   1_545  S
Ni150       O620   1.909       .  S
H152       O1105   0.966   1_545  S
C153        C154   1.413       .  A
C153        C158   1.414       .  A
C154        C155   1.414       .  A
C154        C159   1.451       .  S
C155        C156   1.416       .  A
C155        C162   1.451       .  S
C156        C157   1.414       .  A
C157        C158   1.411       .  A
C157        C648   1.452       .  S
C158        C649   1.452       .  S
C159        N166   1.157       .  T
C160       C1133   1.452       .  S
C160        N165   1.157       .  T
C161       C1134   1.452       .  S
C161        N163   1.157       .  T
C162        N164   1.157       .  T
C167        C172   1.412       .  A
C167        C656   1.415       .  A
C168        C169   1.415       .  A
C168       C1143   1.414       .  A
C168        C173   1.450       .  S
C169       C1146   1.414       .  A
C169        C176   1.451       .  S
C170        C171   1.416       .  A
C170        C657   1.414       .  A
C171        C172   1.406       .  A
C171        C174   1.453       .  S
C172        C175   1.453       .  S
C173        N180   1.157       .  T
C174        N179   1.157       .  T
C175        N177   1.157       .  T
C176        N178   1.158   1_556  T
C181        C182   1.419       .  A
C181        C186   1.417       .  A
C182        C183   1.411       .  A
C182        C187   1.452       .  S
C183        C184   1.409       .  A
C183        C190   1.451       .  S
C184        C185   1.410       .  A
C185        C186   1.409       .  A
C185        C188   1.452       .  S
C186        C189   1.452       .  S
C187        N194   1.158       .  T
C188        N193   1.157       .  T
C189        N191   1.157       .  T
C190        N192   1.157   1_455  T
C195        C196   1.416       .  A
C195        C200   1.418       .  A
C196        C197   1.416       .  A
C196        C201   1.450       .  S
C197        C198   1.413       .  A
C197        C204   1.450       .  S
C198        C199   1.410       .  A
C199        C200   1.407       .  A
C199        C202   1.453       .  S
C200        C203   1.453       .  S
C201        N208   1.158   1_556  T
C202        N207   1.157       .  T
C203        N205   1.157       .  T
C204        N206   1.157       .  T
C209        C210   1.417       .  A
C209        C214   1.418   1_565  A
C210        C211   1.412   1_565  A
C210       C1191   1.451       .  S
C211        C212   1.411       .  A
C211        C218   1.451   1_545  S
C212        C213   1.411       .  A
C213        C214   1.409       .  A
C213        C216   1.452       .  S
C214        C217   1.453       .  S
C215        C698   1.451       .  S
C215        N222   1.157       .  T
C216        N221   1.157       .  T
C217        N219   1.158       .  T
C218       N1196   1.157       .  T
N220        C706   1.157       .  T
C223        C224   1.414       .  A
C223        C228   1.418       .  A
C224        C225   1.411       .  A
C224        C229   1.450   1_554  S
C225        C226   1.411       .  A
C225        C232   1.451       .  S
C226        C227   1.412       .  A
C227        C228   1.412       .  A
C227        C230   1.452       .  S
C228        C231   1.452       .  S
C229        N236   1.157       .  T
C230        N235   1.158       .  T
C231        N233   1.158       .  T
C232        N234   1.157   1_554  T
C237        C238   1.414       .  A
C237        C242   1.412       .  A
C238        C239   1.413       .  A
C238        C243   1.452       .  S
C239        C240   1.416       .  A
C239        C246   1.452       .  S
C240        C241   1.413       .  A
C241        C242   1.409       .  A
C241        C244   1.451       .  S
C242        C245   1.452       .  S
C243        N250   1.158       .  T
C244        N249   1.157       .  T
C245        N247   1.157       .  T
C246        N248   1.158       .  T
C251        C252   1.410       .  A
C251        C256   1.411       .  A
C252        C253   1.409       .  A
C252       C1233   1.451       .  S
C253        C254   1.415       .  A
C253       C1236   1.453       .  S
C254        C255   1.412       .  A
C255        C256   1.411       .  A
C255        C258   1.450   1_554  S
C256        C259   1.451       .  S
C257        C740   1.451       .  S
C257        N264   1.157       .  T
C258        N263   1.157       .  T
C259        N261   1.157   1_554  T
C260        C741   1.453       .  S
C260        N262   1.158       .  T
C265        C266   1.414       .  A
C265        C270   1.413       .  A
C266        C267   1.408       .  A
C266        C271   1.453       .  S
C267        C268   1.417       .  A
C267        C274   1.453       .  S
C268        C269   1.418       .  A
C269        C270   1.414       .  A
C269        C272   1.452       .  S
C270        C273   1.451       .  S
C271        N278   1.157       .  T
C272        N277   1.157       .  T
C273        N275   1.158       .  T
C274        N276   1.157       .  T
C279        C280   1.416       .  A
C279        C772   1.417       .  A
C280        C281   1.412       .  A
C280        C285   1.452       .  S
C281        C282   1.414       .  A
C281        C288   1.452       .  S
C282        C771   1.415       .  A
C283        C284   1.415       .  A
C283       C1258   1.415       .  A
C283        C286   1.452   1_565  S
C284       C1255   1.417       .  A
C284        C287   1.452   1_565  S
C285        N292   1.157       .  T
C286        N291   1.158       .  T
C287        N289   1.157       .  T
C288        N290   1.157       .  T
C293        C294   1.424       .  A
C293        C298   1.419       .  A
C294        C295   1.407       .  A
C294        C299   1.453   1_545  S
C295        C296   1.408       .  A
C295        C302   1.454       .  S
C296        C297   1.411       .  A
C297        C298   1.415       .  A
C297        C300   1.451       .  S
C298        C301   1.450       .  S
C299       N1282   1.158       .  T
C300        N305   1.158       .  T
C301        N303   1.157       .  T
C302        N304   1.158       .  T
N306        C787   1.158       .  T
C307        C308   1.415       .  A
C307        C312   1.414       .  A
C308        C309   1.416       .  A
C308        C313   1.452       .  S
C309        C310   1.418       .  A
C309        C316   1.452       .  S
C310        C311   1.418       .  A
C311        C312   1.410       .  A
C311        C314   1.453       .  S
C312        C315   1.453       .  S
C313        N320   1.158       .  T
C314        N319   1.158       .  T
C315        N317   1.157       .  T
C316        N318   1.158   1_655  T
C321        C322   1.414       .  A
C321        C326   1.414       .  A
C322        C323   1.413       .  A
C322        C327   1.450       .  S
C323        C324   1.415       .  A
C323        C818   1.451       .  S
C324        C325   1.418       .  A
C325        C326   1.408       .  A
C325        C328   1.454       .  S
C326        C329   1.453       .  S
C327        N822   1.157       .  T
C328        N333   1.158       .  T
C329        N331   1.158       .  T
C330       C1299   1.451       .  S
C330        N332   1.157       .  T
N334       C1303   1.157       .  T
C335        C824   1.411       .  A
C335        C828   1.410       .  A
C336        C337   1.417       .  A
C336       C1311   1.411       .  A
C336       C1317   1.450   1_545  S
C337        C338   1.419       .  A
C337        C344   1.450       .  S
C338        C339   1.421       .  A
C339        C340   1.406       .  A
C339        C342   1.454       .  S
C340       C1311   1.410       .  A
C340       C1319   1.454       .  S
C341        C824   1.450       .  S
C341        N348   1.157       .  T
C342        N347   1.158       .  T
C343        C828   1.454       .  S
C343        N345   1.157       .  T
C344        N346   1.157       .  T
C349        C350   1.429       .  A
C349        C354   1.424       .  A
C350        C351   1.409       .  A
C350        C355   1.454       .  S
C351        C352   1.407       .  A
C351        C358   1.455       .  S
C352        C353   1.409       .  A
C353        C354   1.417       .  A
C353        C356   1.451       .  S
C354        C357   1.451       .  S
C355        N362   1.158       .  T
C356        N361   1.157       .  T
C357        N359   1.158       .  T
C358        N360   1.157       .  T
C363        C364   1.416       .  A
C363        C368   1.418       .  A
C364        C365   1.413       .  A
C364        C369   1.452       .  S
C365        C366   1.412       .  A
C365        C372   1.450       .  S
C366        C367   1.410       .  A
C367        C368   1.411       .  A
C367       C1346   1.452       .  S
C368        C371   1.452       .  S
C369        N376   1.158       .  T
C370        C855   1.452       .  S
C370        N375   1.157       .  T
C371        N373   1.157       .  T
C372        N374   1.157   1_455  T
C377        C378   1.418       .  A
C377        C382   1.414       .  A
C378        C379   1.407       .  A
C378        C383   1.454       .  S
C379        C380   1.412       .  A
C379        C386   1.454       .  S
C380        C381   1.414       .  A
C381        C382   1.413       .  A
C381        C384   1.451       .  S
C382        C385   1.451       .  S
C383        N390   1.158       .  T
C384        N389   1.157       .  T
C385        N387   1.157       .  T
C386        N388   1.158       .  T
C391        C392   1.418       .  A
C391        C396   1.417       .  A
C392        C393   1.405       .  A
C392        C397   1.454       .  S
C393        C394   1.412       .  A
C393        C400   1.454       .  S
C394        C395   1.414       .  A
C395        C396   1.417       .  A
C395        C398   1.451       .  S
C396        C399   1.450       .  S
C397        N404   1.158       .  T
C398        N891   1.157       .  T
C399        N401   1.157       .  T
C400        N402   1.157       .  T
N403       C1374   1.157       .  T
C405        C406   1.414       .  A
C405        C898   1.414       .  A
C406        C895   1.413       .  A
C406        C411   1.452       .  S
C407        C408   1.416       .  A
C407       C1382   1.413       .  A
C407        C414   1.452       .  S
C408        C409   1.417       .  A
C409        C410   1.407       .  A
C409        C412   1.453       .  S
C410       C1381   1.414       .  A
C410       C1389   1.453   1_545  S
C411        N418   1.158       .  T
C412        N417   1.158       .  T
C413        C898   1.453       .  S
C413        N415   1.157       .  T
C414        N416   1.157       .  T
C419        C420   1.411   1_565  A
C419        C424   1.411       .  A
C420        C421   1.411       .  A
C420        C425   1.452       .  S
C421        C422   1.419       .  A
C421        C428   1.453       .  S
C422        C423   1.416       .  A
C423        C424   1.414   1_545  A
C423        C426   1.450   1_545  S
C424       C1403   1.451       .  S
C425        N432   1.158       .  T
C426       N1407   1.157       .  T
C427        C912   1.451       .  S
C427        N429   1.157       .  T
C428        N430   1.158       .  T
N431        C914   1.157       .  T
C433        C434   1.420       .  A
C433        C438   1.421       .  A
C434        C435   1.414       .  A
C434        C439   1.451       .  S
C435        C436   1.410       .  A
C435        C442   1.451       .  S
C436        C437   1.410       .  A
C437        C438   1.411       .  A
C437        C440   1.452       .  S
C438        C441   1.452       .  S
C439        N446   1.157       .  T
C440        N445   1.157       .  T
C441        N443   1.158       .  T
C442        N444   1.157       .  T
C447        C448   1.411       .  A
C447        C452   1.413       .  A
C448        C449   1.411       .  A
C448        C453   1.451       .  S
C449        C450   1.415       .  A
C449        C456   1.452       .  S
C450        C451   1.412       .  A
C451        C452   1.412       .  A
C451        C454   1.451       .  S
C452        C455   1.450       .  S
C453        N460   1.157       .  T
C454        N459   1.157       .  T
C455        N457   1.157       .  T
C456        N458   1.157       .  T
C461        C462   1.414       .  A
C461        C466   1.413       .  A
C462        C463   1.408       .  A
C462        C467   1.453       .  S
C463        C464   1.417       .  A
C463        C470   1.454       .  S
C464        C465   1.417       .  A
C465        C466   1.414       .  A
C465        C468   1.451       .  S
C466        C469   1.451       .  S
C467        N474   1.157       .  T
C468        N473   1.157   1_645  T
C469        N471   1.158       .  T
C470        N472   1.158       .  T
C475        C476   1.411       .  A
C475        C480   1.411       .  A
C476        C477   1.413       .  A
C476        C481   1.452       .  S
C477        C478   1.419       .  A
C477        C484   1.452       .  S
C478        C479   1.415       .  A
C479        C480   1.413       .  A
C479        C482   1.449       .  S
C480        C483   1.451       .  S
C481        N488   1.157       .  T
C482        N487   1.157       .  T
C483        N485   1.157       .  T
C484        N486   1.158       .  T
C489        N490   1.355       .  A
C489        N494   1.360       .  A
C489        C949   1.487       .  S
N490        C491   1.353       .  A
C491        N492   1.359       .  A
C491        C935   1.482       .  S
N492        C493   1.362       .  A
C493        N494   1.362       .  A
C493        C963   1.484       .  S
O495       Ni501   1.934       .  S
O495        C516   1.271       .  A
O496       Ni519   1.916       .  S
O496        C505   1.269       .  A
O497       Ni501   1.919       .  S
O497       Ni519   1.914       .  S
O497       Ni513   1.906       .  S
O497        H520   0.966       .  S
C498        C938   1.484       .  S
C498        O515   1.269       .  A
C498        O507   1.274       .  A
O499       Ni518   1.926       .  S
O499        C505   1.270       .  A
O500       Ni518   1.898       .  S
O500        C502   1.269       .  A
Ni501       O504   1.922       .  S
Ni501       O506   1.908       .  S
C502        C879   1.492       .  S
C502        O512   1.275       .  A
O503       Ni519   1.912       .  S
O503        C509   1.274       .  A
O504        C509   1.275       .  A
C505        C910   1.493       .  S
O506        C508   1.270       .  A
O507       Ni518   1.928       .  S
C508        C896   1.489       .  S
C508        O514   1.272       .  A
C509        C865   1.487       .  S
H510        O511   0.966       .  S
O511       Ni519   1.914       .  S
O511       Ni513   1.912       .  S
O511       Ni518   1.913       .  S
O512       Ni513   1.937       .  S
Ni513       O517   1.903       .  S
Ni513       O515   1.904       .  S
O514       Ni519   1.924       .  S
C516        C924   1.482       .  S
C516        O517   1.266       .  A
C521        N522   1.361       .  A
C521        N526   1.354       .  A
C521        C840   1.482       .  S
N522        C523   1.366       .  A
C523        N524   1.360       .  A
C523        C851   1.492       .  S
N524        C525   1.355       .  A
C525        N526   1.353       .  A
C525        C868   1.484       .  S
C527        N528   1.360       .  A
C527        N532   1.354       .  A
C527        C823   1.484       .  S
N528        C529   1.365       .  A
C529        N530   1.361       .  A
C529        C921   1.497       .  S
N530        C531   1.356       .  A
C531        N532   1.352       .  A
C531        C809   1.488       .  S
O533        C554   1.270       .  A
O534       Ni557   1.908       .  S
O534        C543   1.267       .  A
O535       Ni539   1.922       .  S
O535       Ni557   1.915       .  S
O535       Ni551   1.916   1_655  S
O535       H1046   0.964       .  S
C536        C767   1.496       .  S
C536        O553   1.273       .  A
C536        O545   1.277       .  A
O537       Ni556   1.937       .  S
O537        C543   1.272   1_455  A
O538        C540   1.267       .  A
Ni539      O1021   1.928   1_655  S
Ni539       O542   1.922       .  S
Ni539       O544   1.909       .  S
C540        C781   1.499       .  S
C540        O550   1.278       .  A
O541       Ni557   1.905       .  S
O541        C547   1.270       .  A
O542        C547   1.273       .  A
C543        C966   1.495       .  S
O544        C546   1.270       .  A
O545       Ni556   1.932       .  S
C546        C798   1.496       .  S
C546        O552   1.275       .  A
C547        C812   1.489       .  S
H548        O549   0.966       .  S
O549       Ni557   1.906   1_455  S
O549       Ni551   1.913       .  S
O549       Ni556   1.914       .  S
Ni551      O1038   1.946       .  S
Ni551      O1043   1.912       .  S
Ni551       O553   1.914       .  S
O552       Ni557   1.933       .  S
C554        C854   1.483       .  S
C554        O555   1.269       .  A
Ni556      O1026   1.896       .  S
C559        N560   1.357       .  A
C559       N1052   1.360       .  A
C559        C753   1.488       .  S
N560        C561   1.355       .  A
C561       N1050   1.358       .  A
C561        C770   1.492       .  S
N562        C563   1.361       .  A
C563        N564   1.362       .  A
C563        C907   1.484       .  S
C565        N566   1.361       .  A
C565        N570   1.358       .  A
C565        C795   1.492       .  S
N566        C567   1.362       .  A
C567        N568   1.358       .  A
C567        C739   1.477       .  S
N568        C569   1.355       .  A
C569        N570   1.356       .  A
C569        C725   1.485       .  S
O571       Ni577   1.929       .  S
O571        C592   1.270       .  A
O572       Ni595   1.903       .  S
O572        C581   1.267       .  A
O573       Ni577   1.915   1_556  S
O573       Ni595   1.913       .  S
O573       Ni589   1.912       .  S
O573        H596   0.966       .  S
C574        C683   1.490       .  S
C574        O591   1.271       .  A
C574        O583   1.273       .  A
O575       Ni594   1.926       .  S
O575        C581   1.269       .  A
O576       Ni594   1.904       .  S
O576        C578   1.269       .  A
Ni577       O580   1.927       .  S
Ni577       O582   1.897       .  S
C578        C756   1.493       .  S
C578        O588   1.274       .  A
O579       Ni595   1.908       .  S
O579        C585   1.269   1_556  A
O580        C585   1.274       .  A
C581        C700   1.479       .  S
O582        C584   1.268       .  A
O583       Ni594   1.922       .  S
C584        C826   1.496       .  S
C584        O590   1.277       .  A
C585        C728   1.488       .  S
H586        O587   0.965       .  S
O587       Ni595   1.914       .  S
O587       Ni589   1.914       .  S
O587       Ni594   1.922       .  S
O588       Ni589   1.931       .  S
Ni589       O593   1.905       .  S
Ni589       O591   1.915       .  S
O590       Ni595   1.944   1_554  S
C592        C711   1.489       .  S
C592        O593   1.267   1_554  A
C597        N598   1.355       .  A
C597        N602   1.356       .  A
C597        C784   1.482       .  S
N598        C599   1.355       .  A
C599        N600   1.358       .  A
C599        C686   1.485       .  S
N600        C601   1.363       .  A
C601        N602   1.361       .  A
C601        C669   1.489       .  S
C603        N604   1.355       .  A
C603       N1096   1.360       .  A
C603        C882   1.487       .  S
N604        C605   1.353       .  A
C605       N1094   1.354       .  A
C605        C655   1.484       .  S
N606        C607   1.360       .  A
C607        N608   1.363       .  A
C607        C697   1.490       .  S
C609        N610   1.355       .  A
C609        N614   1.358       .  A
C609        C893   1.486       .  S
N610        C611   1.354       .  A
C611        N612   1.360       .  A
C611        C641   1.487       .  S
N612        C613   1.362       .  A
C613        N614   1.360       .  A
C613        C714   1.482       .  S
O615        C636   1.269   1_455  A
O616       Ni639   1.899       .  S
O616        C625   1.265       .  A
O617       Ni621   1.915   1_556  S
O617       Ni639   1.914       .  S
O617       Ni633   1.917   1_455  S
O617       H1128   0.966       .  S
C618        C658   1.487       .  S
C618        O635   1.273       .  A
C618        O627   1.274       .  A
O619       Ni638   1.928   1_455  S
O619        C625   1.269       .  A
O620        C622   1.269       .  A
Ni621      O1103   1.925       .  S
Ni621       O624   1.929       .  S
Ni621       O626   1.896       .  S
C622        C952   1.491       .  S
C622        O632   1.272       .  A
O623       Ni639   1.907       .  S
O623        C629   1.268   1_556  A
O624        C629   1.274       .  A
C625        C672   1.475       .  S
O626        C628   1.266       .  A
O627       Ni638   1.919       .  S
C628        C837   1.511       .  S
C628        O634   1.278       .  A
C629        C644   1.490       .  S
H630        O631   0.963       .  S
O631       Ni639   1.908   1_655  S
O631       Ni633   1.911       .  S
O631       Ni638   1.921       .  S
Ni633      O1120   1.924       .  S
Ni633      O1125   1.904       .  S
Ni633       O635   1.917       .  S
O634       Ni639   1.946   1_554  S
C636        C742   1.482       .  S
C636        O637   1.265   1_554  A
Ni638      O1108   1.909       .  S
C641        C642   1.413       .  A
C641        C646   1.414       .  A
C642        C643   1.414       .  A
C642        C647   1.451       .  S
C643        C644   1.416       .  A
C643        C650   1.451       .  S
C644        C645   1.414       .  A
C645        C646   1.411       .  A
C645       C1136   1.452       .  S
C646       C1137   1.452       .  S
C647        N654   1.157       .  T
C648        N653   1.157       .  T
C649        N651   1.157       .  T
C650        N652   1.157       .  T
C655       C1144   1.415       .  A
C655        C660   1.412       .  A
C656        C657   1.415       .  A
C656        C661   1.450       .  S
C657        C664   1.451       .  S
C658       C1145   1.414       .  A
C658        C659   1.416       .  A
C659        C660   1.406       .  A
C659        C662   1.453       .  S
C660        C663   1.453       .  S
C661        N668   1.157       .  T
C662        N667   1.157       .  T
C663        N665   1.157       .  T
C664        N666   1.158   1_556  T
C669        C670   1.419       .  A
C669        C674   1.417       .  A
C670        C671   1.411       .  A
C670        C675   1.452       .  S
C671        C672   1.409       .  A
C671        C678   1.451       .  S
C672        C673   1.410       .  A
C673        C674   1.409       .  A
C673        C676   1.452       .  S
C674        C677   1.452       .  S
C675        N682   1.158       .  T
C676        N681   1.157       .  T
C677        N679   1.157       .  T
C678        N680   1.157   1_455  T
C683        C684   1.416       .  A
C683        C688   1.418       .  A
C684        C685   1.416       .  A
C684        C689   1.450       .  S
C685        C686   1.413       .  A
C685        C692   1.450       .  S
C686        C687   1.410       .  A
C687        C688   1.407       .  A
C687        C690   1.453       .  S
C688        C691   1.453       .  S
C689        N696   1.158   1_556  T
C690        N695   1.157       .  T
C691        N693   1.157       .  T
C692        N694   1.157       .  T
C697        C698   1.417       .  A
C697        C702   1.418       .  A
C698        C699   1.412       .  A
C699        C700   1.411       .  A
C699        C706   1.451       .  S
C700        C701   1.411       .  A
C701        C702   1.409       .  A
C701        C704   1.452       .  S
C702        C705   1.453       .  S
C703       C1186   1.451       .  S
C703        N710   1.157       .  T
C704        N709   1.157       .  T
C705        N707   1.158       .  T
N708       C1194   1.157       .  T
C711        C712   1.414       .  A
C711        C716   1.418       .  A
C712        C713   1.411       .  A
C712        C717   1.450   1_554  S
C713        C714   1.411       .  A
C713        C720   1.451       .  S
C714        C715   1.412       .  A
C715        C716   1.412       .  A
C715        C718   1.452       .  S
C716        C719   1.452       .  S
C717        N724   1.157       .  T
C718        N723   1.158       .  T
C719        N721   1.158       .  T
C720        N722   1.157   1_554  T
C725        C726   1.414       .  A
C725        C730   1.412       .  A
C726        C727   1.413       .  A
C726        C731   1.452       .  S
C727        C728   1.416       .  A
C727        C734   1.452       .  S
C728        C729   1.413       .  A
C729        C730   1.409       .  A
C729        C732   1.451       .  S
C730        C733   1.452       .  S
C731        N738   1.158       .  T
C732        N737   1.157       .  T
C733        N735   1.157       .  T
C734        N736   1.158       .  T
C739        C740   1.410       .  A
C739        C744   1.411       .  A
C740        C741   1.409       .  A
C741        C742   1.415       .  A
C742        C743   1.412       .  A
C743        C744   1.411       .  A
C743        C746   1.450   1_554  S
C744        C747   1.451       .  S
C745       C1228   1.451       .  S
C745        N752   1.157       .  T
C746        N751   1.157       .  T
C747        N749   1.157   1_554  T
C748       C1229   1.453       .  S
C748        N750   1.158       .  T
C753        C754   1.414       .  A
C753        C758   1.413       .  A
C754        C755   1.408       .  A
C754        C759   1.453       .  S
C755        C756   1.417       .  A
C755        C762   1.453       .  S
C756        C757   1.418       .  A
C757        C758   1.414       .  A
C757        C760   1.452       .  S
C758        C761   1.451       .  S
C759        N766   1.157       .  T
C760        N765   1.157       .  T
C761        N763   1.158       .  T
C762        N764   1.157       .  T
C767        C768   1.416       .  A
C767       C1260   1.417       .  A
C768        C769   1.412       .  A
C768        C773   1.452       .  S
C769        C770   1.414       .  A
C769        C776   1.452       .  S
C770       C1259   1.415       .  A
C771        C772   1.415       .  A
C771        C774   1.452       .  S
C772        C775   1.452       .  S
C773        N780   1.157       .  T
C774        N779   1.158       .  T
C775        N777   1.157       .  T
C776        N778   1.157       .  T
C781        C782   1.424       .  A
C781        C786   1.419       .  A
C782        C783   1.407       .  A
C782        C787   1.453       .  S
C783        C784   1.408       .  A
C783        C790   1.454       .  S
C784        C785   1.411       .  A
C785        C786   1.415       .  A
C785        C788   1.451       .  S
C786        C789   1.450       .  S
C788        N793   1.158       .  T
C789        N791   1.157       .  T
C790        N792   1.158       .  T
N794       C1275   1.158       .  T
C795        C796   1.415       .  A
C795        C800   1.414       .  A
C796        C797   1.416       .  A
C796        C801   1.452       .  S
C797        C798   1.418       .  A
C797        C804   1.452       .  S
C798        C799   1.418       .  A
C799        C800   1.410       .  A
C799        C802   1.453       .  S
C800        C803   1.453       .  S
C801        N808   1.158       .  T
C802        N807   1.158       .  T
C803        N805   1.157       .  T
C804        N806   1.158   1_655  T
C809        C810   1.414       .  A
C809        C814   1.414       .  A
C810        C811   1.413       .  A
C810        C815   1.450       .  S
C811        C812   1.415       .  A
C811       C1306   1.451       .  S
C812        C813   1.418       .  A
C813        C814   1.408       .  A
C813        C816   1.454       .  S
C814        C817   1.453       .  S
C815       N1310   1.157       .  T
C816        N821   1.158       .  T
C817        N819   1.158       .  T
C818        N820   1.157       .  T
C823       C1312   1.411       .  A
C823       C1316   1.410       .  A
C824        C825   1.417       .  A
C825        C826   1.419       .  A
C825        C832   1.450       .  S
C826        C827   1.421       .  A
C827        C828   1.406       .  A
C827        C830   1.454       .  S
C829       C1312   1.450       .  S
C829        N836   1.157       .  T
C830        N835   1.158       .  T
C831       C1316   1.454       .  S
C831        N833   1.157       .  T
C832        N834   1.157       .  T
C837        C838   1.429       .  A
C837        C842   1.424       .  A
C838        C839   1.409       .  A
C838        C843   1.454       .  S
C839        C840   1.407       .  A
C839        C846   1.455       .  S
C840        C841   1.409       .  A
C841        C842   1.417       .  A
C841        C844   1.451       .  S
C842        C845   1.451       .  S
C843        N850   1.158       .  T
C844        N849   1.157       .  T
C845        N847   1.158       .  T
C846        N848   1.157       .  T
C851        C852   1.416       .  A
C851        C856   1.418       .  A
C852        C853   1.413       .  A
C852        C857   1.452       .  S
C853        C854   1.412       .  A
C853        C860   1.450       .  S
C854        C855   1.410       .  A
C855        C856   1.411       .  A
C856        C859   1.452       .  S
C857        N864   1.158       .  T
C858       C1343   1.452       .  S
C858        N863   1.157       .  T
C859        N861   1.157       .  T
C860        N862   1.157   1_455  T
C865        C866   1.418       .  A
C865        C870   1.414       .  A
C866        C867   1.407       .  A
C866        C871   1.454       .  S
C867        C868   1.412       .  A
C867        C874   1.454       .  S
C868        C869   1.414       .  A
C869        C870   1.413       .  A
C869        C872   1.451       .  S
C870        C873   1.451       .  S
C871        N878   1.158       .  T
C872        N877   1.157       .  T
C873        N875   1.157       .  T
C874        N876   1.158       .  T
C879        C880   1.418       .  A
C879        C884   1.417       .  A
C880        C881   1.405       .  A
C880        C885   1.454       .  S
C881        C882   1.412       .  A
C881        C888   1.454       .  S
C882        C883   1.414       .  A
C883        C884   1.417       .  A
C883        C886   1.451       .  S
C884        C887   1.450       .  S
C885        N892   1.158       .  T
C886       N1379   1.157       .  T
C887        N889   1.157       .  T
C888        N890   1.157       .  T
C893        C894   1.414       .  A
C893       C1386   1.414       .  A
C894       C1383   1.413       .  A
C894        C899   1.452       .  S
C895        C896   1.416       .  A
C895        C902   1.452       .  S
C896        C897   1.417       .  A
C897        C898   1.407       .  A
C897        C900   1.453       .  S
C899        N906   1.158       .  T
C900        N905   1.158       .  T
C901       C1386   1.453       .  S
C901        N903   1.157       .  T
C902        N904   1.157       .  T
C907        C908   1.411       .  A
C907        C912   1.411       .  A
C908        C909   1.411       .  A
C908        C913   1.452       .  S
C909        C910   1.419       .  A
C909        C916   1.453       .  S
C910        C911   1.416       .  A
C911        C912   1.414       .  A
C911        C914   1.450       .  S
C913        N920   1.158       .  T
C915       C1400   1.451       .  S
C915        N917   1.157       .  T
C916        N918   1.158       .  T
N919       C1402   1.157       .  T
C921        C922   1.420       .  A
C921        C926   1.421       .  A
C922        C923   1.413       .  A
C922        C927   1.451       .  S
C923        C924   1.410       .  A
C923        C930   1.451       .  S
C924        C925   1.410       .  A
C925        C926   1.411       .  A
C925        C928   1.452       .  S
C926        C929   1.452       .  S
C927        N934   1.157       .  T
C928        N933   1.157       .  T
C929        N931   1.158       .  T
C930        N932   1.157       .  T
C935        C936   1.411       .  A
C935        C940   1.413       .  A
C936        C937   1.411       .  A
C936        C941   1.451       .  S
C937        C938   1.415       .  A
C937        C944   1.452       .  S
C938        C939   1.412       .  A
C939        C940   1.412       .  A
C939        C942   1.451       .  S
C940        C943   1.450       .  S
C941        N948   1.157       .  T
C942        N947   1.157       .  T
C943        N945   1.157       .  T
C944        N946   1.157       .  T
C949        C950   1.414       .  A
C949        C954   1.413       .  A
C950        C951   1.408       .  A
C950        C955   1.453       .  S
C951        C952   1.417       .  A
C951        C958   1.454       .  S
C952        C953   1.417       .  A
C953        C954   1.414       .  A
C953        C956   1.451       .  S
C954        C957   1.451       .  S
C955        N962   1.157       .  T
C956        N961   1.157   1_655  T
C957        N959   1.158       .  T
C958        N960   1.158       .  T
C963        C964   1.411       .  A
C963        C968   1.411       .  A
C964        C965   1.413       .  A
C964        C969   1.452       .  S
C965        C966   1.419       .  A
C965        C972   1.452       .  S
C966        C967   1.415       .  A
C967        C968   1.413       .  A
C967        C970   1.449       .  S
C968        C971   1.451       .  S
C969        N976   1.157       .  T
C970        N975   1.157       .  T
C971        N973   1.157       .  T
C972        N974   1.158       .  T
C977        N978   1.355       .  A
C977        N982   1.360       .  A
C977       C1437   1.487       .  S
N978        C979   1.353       .  A
C979        N980   1.359       .  A
C979       C1423   1.482       .  S
N980        C981   1.362       .  A
C981        N982   1.362       .  A
C981       C1451   1.484       .  S
O983       Ni989   1.934       .  S
O983       C1004   1.271       .  A
O984      Ni1007   1.916       .  S
O984        C993   1.269       .  A
O985       Ni989   1.919       .  S
O985      Ni1007   1.914       .  S
O985      Ni1001   1.906       .  S
O985       H1008   0.966       .  S
C986       C1426   1.484       .  S
C986       O1003   1.269       .  A
C986        O995   1.274       .  A
O987      Ni1006   1.926       .  S
O987        C993   1.270       .  A
O988      Ni1006   1.898       .  S
O988        C990   1.269       .  A
Ni989       O992   1.922       .  S
Ni989       O994   1.908       .  S
C990       C1367   1.492       .  S
C990       O1000   1.275       .  A
O991      Ni1007   1.912       .  S
O991        C997   1.274       .  A
O992        C997   1.275       .  A
C993       C1398   1.493       .  S
O994        C996   1.270       .  A
O995      Ni1006   1.928       .  S
C996       C1384   1.489       .  S
C996       O1002   1.272       .  A
C997       C1353   1.487       .  S
H998        O999   0.966       .  S
O999      Ni1007   1.914       .  S
O999      Ni1001   1.912       .  S
O999      Ni1006   1.913       .  S
O1000     Ni1001   1.937       .  S
Ni1001     O1005   1.903       .  S
Ni1001     O1003   1.904       .  S
O1002     Ni1007   1.924       .  S
C1004      C1412   1.482       .  S
C1004      O1005   1.266       .  A
C1009      N1010   1.361       .  A
C1009      N1014   1.354       .  A
C1009      C1328   1.482       .  S
N1010      C1011   1.366       .  A
C1011      N1012   1.360       .  A
C1011      C1339   1.492       .  S
N1012      C1013   1.355       .  A
C1013      N1014   1.353       .  A
C1013      C1356   1.484       .  S
C1015      N1016   1.360   1_545  A
C1015      N1020   1.354   1_545  A
C1015      C1311   1.484       .  S
N1016      C1017   1.365       .  A
C1017      N1018   1.361       .  A
C1017      C1409   1.497       .  S
N1018      C1019   1.356       .  A
C1019      N1020   1.352       .  A
C1019      C1297   1.488       .  S
O1021      C1042   1.270       .  A
O1022     Ni1045   1.908       .  S
O1022      C1031   1.267       .  A
O1023     Ni1027   1.922   1_565  S
O1023     Ni1045   1.915       .  S
O1023     Ni1039   1.916   1_655  S
C1024      C1255   1.496       .  S
C1024      O1041   1.273       .  A
C1024      O1033   1.277       .  A
O1025     Ni1044   1.937       .  S
O1025      C1031   1.272   1_455  A
O1026      C1028   1.267       .  A
Ni1027     O1030   1.922       .  S
Ni1027     O1032   1.909   1_545  S
C1028      C1269   1.499       .  S
C1028      O1038   1.278       .  A
O1029     Ni1045   1.905       .  S
O1029      C1035   1.270       .  A
O1030      C1035   1.273   1_545  A
C1031      C1454   1.495       .  S
O1032      C1034   1.270       .  A
O1033     Ni1044   1.932       .  S
C1034      C1286   1.496       .  S
C1034      O1040   1.275       .  A
C1035      C1300   1.489       .  S
H1036      O1037   0.966       .  S
O1037     Ni1045   1.906   1_455  S
O1037     Ni1039   1.913       .  S
O1037     Ni1044   1.914       .  S
Ni1039     O1041   1.914       .  S
O1040     Ni1045   1.933       .  S
C1042      C1342   1.483       .  S
C1042      O1043   1.269       .  A
C1047      N1048   1.357       .  A
C1047      C1241   1.488       .  S
N1048      C1049   1.355       .  A
C1049      C1258   1.492       .  S
N1050      C1051   1.361       .  A
C1051      N1052   1.362       .  A
C1051      C1395   1.484       .  S
C1053      N1054   1.361       .  A
C1053      N1058   1.358       .  A
C1053      C1283   1.492       .  S
N1054      C1055   1.362       .  A
C1055      N1056   1.358       .  A
C1055      C1227   1.477       .  S
N1056      C1057   1.355       .  A
C1057      N1058   1.356       .  A
C1057      C1213   1.485       .  S
O1059     Ni1065   1.929       .  S
O1059      C1080   1.270       .  A
O1060     Ni1083   1.903       .  S
O1060      C1069   1.267       .  A
O1061     Ni1065   1.915   1_556  S
O1061     Ni1083   1.913       .  S
O1061     Ni1077   1.912       .  S
O1061      H1084   0.966       .  S
C1062      C1171   1.490       .  S
C1062      O1079   1.271       .  A
C1062      O1071   1.273       .  A
O1063     Ni1082   1.926       .  S
O1063      C1069   1.269       .  A
O1064     Ni1082   1.904       .  S
O1064      C1066   1.269       .  A
Ni1065     O1068   1.927       .  S
Ni1065     O1070   1.897       .  S
C1066      C1244   1.493       .  S
C1066      O1076   1.274       .  A
O1067     Ni1083   1.908       .  S
O1067      C1073   1.269   1_556  A
O1068      C1073   1.274       .  A
C1069      C1188   1.479       .  S
O1070      C1072   1.268       .  A
O1071     Ni1082   1.922       .  S
C1072      C1314   1.496       .  S
C1072      O1078   1.277       .  A
C1073      C1216   1.488       .  S
H1074      O1075   0.965       .  S
O1075     Ni1083   1.914       .  S
O1075     Ni1077   1.914       .  S
O1075     Ni1082   1.922       .  S
O1076     Ni1077   1.931       .  S
Ni1077     O1081   1.905       .  S
Ni1077     O1079   1.915       .  S
O1078     Ni1083   1.944   1_554  S
C1080      C1199   1.489       .  S
C1080      O1081   1.267   1_554  A
C1085      N1086   1.355       .  A
C1085      N1090   1.356       .  A
C1085      C1272   1.482       .  S
N1086      C1087   1.355       .  A
C1087      N1088   1.358       .  A
C1087      C1174   1.485       .  S
N1088      C1089   1.363       .  A
C1089      N1090   1.361       .  A
C1089      C1157   1.489       .  S
C1091      N1092   1.355       .  A
C1091      C1370   1.487       .  S
N1092      C1093   1.353       .  A
C1093      C1143   1.484       .  S
N1094      C1095   1.360       .  A
C1095      N1096   1.363       .  A
C1095      C1185   1.490       .  S
C1097      N1098   1.355       .  A
C1097      N1102   1.358   1_545  A
C1097      C1381   1.486       .  S
N1098      C1099   1.354   1_545  A
C1099      N1100   1.360       .  A
C1099      C1129   1.487       .  S
N1100      C1101   1.362       .  A
C1101      N1102   1.360       .  A
C1101      C1202   1.482       .  S
O1103      C1124   1.269   1_455  A
O1104     Ni1127   1.899       .  S
O1104      C1113   1.265       .  A
O1105     Ni1109   1.915   1_566  S
O1105     Ni1127   1.914       .  S
O1105     Ni1121   1.917   1_455  S
C1106      C1146   1.487       .  S
C1106      O1123   1.273       .  A
C1106      O1115   1.274       .  A
O1107     Ni1126   1.928   1_455  S
O1107      C1113   1.269       .  A
O1108      C1110   1.269       .  A
Ni1109     O1112   1.929       .  S
Ni1109     O1114   1.896   1_545  S
C1110      C1440   1.491       .  S
C1110      O1120   1.272       .  A
O1111     Ni1127   1.907       .  S
O1111      C1117   1.268   1_556  A
O1112      C1117   1.274   1_545  A
C1113      C1160   1.475       .  S
O1114      C1116   1.266       .  A
O1115     Ni1126   1.919       .  S
C1116      C1325   1.511       .  S
C1116      O1122   1.278       .  A
C1117      C1132   1.490       .  S
H1118      O1119   0.963       .  S
O1119     Ni1127   1.908   1_655  S
O1119     Ni1121   1.911       .  S
O1119     Ni1126   1.921       .  S
Ni1121     O1123   1.917       .  S
O1122     Ni1127   1.946   1_554  S
C1124      C1230   1.482       .  S
C1124      O1125   1.265   1_554  A
C1129      C1130   1.413       .  A
C1129      C1134   1.414   1_565  A
C1130      C1131   1.414       .  A
C1130      C1135   1.451       .  S
C1131      C1132   1.416       .  A
C1131      C1138   1.451       .  S
C1132      C1133   1.414   1_565  A
C1133      C1134   1.411       .  A
C1135      N1142   1.157       .  T
C1136      N1141   1.157       .  T
C1137      N1139   1.157       .  T
C1138      N1140   1.157       .  T
C1143      C1148   1.412       .  A
C1144      C1145   1.415       .  A
C1144      C1149   1.450       .  S
C1145      C1152   1.451       .  S
C1146      C1147   1.416       .  A
C1147      C1148   1.406       .  A
C1147      C1150   1.453       .  S
C1148      C1151   1.453       .  S
C1149      N1156   1.157       .  T
C1150      N1155   1.157       .  T
C1151      N1153   1.157       .  T
C1152      N1154   1.158   1_556  T
C1157      C1158   1.419       .  A
C1157      C1162   1.417       .  A
C1158      C1159   1.411       .  A
C1158      C1163   1.452       .  S
C1159      C1160   1.409       .  A
C1159      C1166   1.451       .  S
C1160      C1161   1.410       .  A
C1161      C1162   1.409       .  A
C1161      C1164   1.452       .  S
C1162      C1165   1.452       .  S
C1163      N1170   1.158       .  T
C1164      N1169   1.157       .  T
C1165      N1167   1.157       .  T
C1166      N1168   1.157   1_455  T
C1171      C1172   1.416       .  A
C1171      C1176   1.418       .  A
C1172      C1173   1.416       .  A
C1172      C1177   1.450       .  S
C1173      C1174   1.413       .  A
C1173      C1180   1.450       .  S
C1174      C1175   1.410       .  A
C1175      C1176   1.407       .  A
C1175      C1178   1.453       .  S
C1176      C1179   1.453       .  S
C1177      N1184   1.158   1_556  T
C1178      N1183   1.157       .  T
C1179      N1181   1.157       .  T
C1180      N1182   1.157       .  T
C1185      C1186   1.417       .  A
C1185      C1190   1.418       .  A
C1186      C1187   1.412       .  A
C1187      C1188   1.411       .  A
C1187      C1194   1.451       .  S
C1188      C1189   1.411       .  A
C1189      C1190   1.409       .  A
C1189      C1192   1.452       .  S
C1190      C1193   1.453       .  S
C1191      N1198   1.157       .  T
C1192      N1197   1.157       .  T
C1193      N1195   1.158       .  T
C1199      C1200   1.414       .  A
C1199      C1204   1.418       .  A
C1200      C1201   1.411       .  A
C1200      C1205   1.450   1_554  S
C1201      C1202   1.411       .  A
C1201      C1208   1.451       .  S
C1202      C1203   1.412       .  A
C1203      C1204   1.412       .  A
C1203      C1206   1.452       .  S
C1204      C1207   1.452       .  S
C1205      N1212   1.157       .  T
C1206      N1211   1.158       .  T
C1207      N1209   1.158       .  T
C1208      N1210   1.157   1_564  T
C1213      C1214   1.414       .  A
C1213      C1218   1.412       .  A
C1214      C1215   1.413       .  A
C1214      C1219   1.452       .  S
C1215      C1216   1.416       .  A
C1215      C1222   1.452       .  S
C1216      C1217   1.413       .  A
C1217      C1218   1.409       .  A
C1217      C1220   1.451       .  S
C1218      C1221   1.452       .  S
C1219      N1226   1.158       .  T
C1220      N1225   1.157       .  T
C1221      N1223   1.157       .  T
C1222      N1224   1.158       .  T
C1227      C1228   1.410       .  A
C1227      C1232   1.411       .  A
C1228      C1229   1.409       .  A
C1229      C1230   1.415       .  A
C1230      C1231   1.412       .  A
C1231      C1232   1.411       .  A
C1231      C1234   1.450   1_554  S
C1232      C1235   1.451       .  S
C1233      N1240   1.157       .  T
C1234      N1239   1.157       .  T
C1235      N1237   1.157   1_554  T
C1236      N1238   1.158   1_545  T
C1241      C1242   1.414       .  A
C1241      C1246   1.413       .  A
C1242      C1243   1.408       .  A
C1242      C1247   1.453       .  S
C1243      C1244   1.417       .  A
C1243      C1250   1.453       .  S
C1244      C1245   1.418       .  A
C1245      C1246   1.414       .  A
C1245      C1248   1.452       .  S
C1246      C1249   1.451       .  S
C1247      N1254   1.157       .  T
C1248      N1253   1.157       .  T
C1249      N1251   1.158       .  T
C1250      N1252   1.157       .  T
C1255      C1256   1.416       .  A
C1256      C1257   1.412       .  A
C1256      C1261   1.452       .  S
C1257      C1258   1.414       .  A
C1257      C1264   1.452       .  S
C1259      C1260   1.415       .  A
C1259      C1262   1.452       .  S
C1260      C1263   1.452       .  S
C1261      N1268   1.157       .  T
C1262      N1267   1.158       .  T
C1263      N1265   1.157       .  T
C1264      N1266   1.157       .  T
C1269      C1270   1.424       .  A
C1269      C1274   1.419       .  A
C1270      C1271   1.407       .  A
C1270      C1275   1.453       .  S
C1271      C1272   1.408       .  A
C1271      C1278   1.454       .  S
C1272      C1273   1.411       .  A
C1273      C1274   1.415       .  A
C1273      C1276   1.451       .  S
C1274      C1277   1.450       .  S
C1276      N1281   1.158       .  T
C1277      N1279   1.157       .  T
C1278      N1280   1.158       .  T
C1283      C1284   1.415       .  A
C1283      C1288   1.414       .  A
C1284      C1285   1.416       .  A
C1284      C1289   1.452       .  S
C1285      C1286   1.418       .  A
C1285      C1292   1.452       .  S
C1286      C1287   1.418       .  A
C1287      C1288   1.410       .  A
C1287      C1290   1.453       .  S
C1288      C1291   1.453       .  S
C1289      N1296   1.158       .  T
C1290      N1295   1.158       .  T
C1291      N1293   1.157       .  T
C1292      N1294   1.158   1_655  T
C1297      C1298   1.414       .  A
C1297      C1302   1.414       .  A
C1298      C1299   1.413       .  A
C1298      C1303   1.450       .  S
C1299      C1300   1.415       .  A
C1300      C1301   1.418       .  A
C1301      C1302   1.408       .  A
C1301      C1304   1.454       .  S
C1302      C1305   1.453       .  S
C1304      N1309   1.158       .  T
C1305      N1307   1.158       .  T
C1306      N1308   1.157       .  T
C1312      C1313   1.417       .  A
C1313      C1314   1.419       .  A
C1313      C1320   1.450       .  S
C1314      C1315   1.421       .  A
C1315      C1316   1.406       .  A
C1315      C1318   1.454       .  S
C1317      N1324   1.157       .  T
C1318      N1323   1.158       .  T
C1319      N1321   1.157       .  T
C1320      N1322   1.157       .  T
C1325      C1326   1.429       .  A
C1325      C1330   1.424       .  A
C1326      C1327   1.409       .  A
C1326      C1331   1.454       .  S
C1327      C1328   1.407       .  A
C1327      C1334   1.455       .  S
C1328      C1329   1.409       .  A
C1329      C1330   1.417       .  A
C1329      C1332   1.451       .  S
C1330      C1333   1.451       .  S
C1331      N1338   1.158       .  T
C1332      N1337   1.157       .  T
C1333      N1335   1.158       .  T
C1334      N1336   1.157       .  T
C1339      C1340   1.416       .  A
C1339      C1344   1.418       .  A
C1340      C1341   1.413       .  A
C1340      C1345   1.452       .  S
C1341      C1342   1.412       .  A
C1341      C1348   1.450       .  S
C1342      C1343   1.410       .  A
C1343      C1344   1.411       .  A
C1344      C1347   1.452       .  S
C1345      N1352   1.158       .  T
C1346      N1351   1.157   1_545  T
C1347      N1349   1.157       .  T
C1348      N1350   1.157   1_455  T
C1353      C1354   1.418       .  A
C1353      C1358   1.414       .  A
C1354      C1355   1.407       .  A
C1354      C1359   1.454       .  S
C1355      C1356   1.412       .  A
C1355      C1362   1.454       .  S
C1356      C1357   1.414       .  A
C1357      C1358   1.413       .  A
C1357      C1360   1.451       .  S
C1358      C1361   1.451       .  S
C1359      N1366   1.158       .  T
C1360      N1365   1.157       .  T
C1361      N1363   1.157       .  T
C1362      N1364   1.158       .  T
C1367      C1368   1.418       .  A
C1367      C1372   1.417       .  A
C1368      C1369   1.405       .  A
C1368      C1373   1.454       .  S
C1369      C1370   1.412       .  A
C1369      C1376   1.454       .  S
C1370      C1371   1.414       .  A
C1371      C1372   1.417       .  A
C1371      C1374   1.451       .  S
C1372      C1375   1.450       .  S
C1373      N1380   1.158       .  T
C1375      N1377   1.157       .  T
C1376      N1378   1.157       .  T
C1381      C1382   1.414       .  A
C1382      C1387   1.452       .  S
C1383      C1384   1.416       .  A
C1383      C1390   1.452       .  S
C1384      C1385   1.417       .  A
C1385      C1386   1.407       .  A
C1385      C1388   1.453       .  S
C1387      N1394   1.158       .  T
C1388      N1393   1.158       .  T
C1389      N1391   1.157       .  T
C1390      N1392   1.157       .  T
C1395      C1396   1.411       .  A
C1395      C1400   1.411       .  A
C1396      C1397   1.411       .  A
C1396      C1401   1.452       .  S
C1397      C1398   1.419       .  A
C1397      C1404   1.453       .  S
C1398      C1399   1.416       .  A
C1399      C1400   1.414       .  A
C1399      C1402   1.450       .  S
C1401      N1408   1.158       .  T
C1403      N1405   1.157       .  T
C1404      N1406   1.158       .  T
C1409      C1410   1.420       .  A
C1409      C1414   1.421       .  A
C1410      C1411   1.413       .  A
C1410      C1415   1.451       .  S
C1411      C1412   1.410       .  A
C1411      C1418   1.451       .  S
C1412      C1413   1.410       .  A
C1413      C1414   1.411       .  A
C1413      C1416   1.452       .  S
C1414      C1417   1.452       .  S
C1415      N1422   1.157   1_565  T
C1416      N1421   1.157       .  T
C1417      N1419   1.158       .  T
C1418      N1420   1.157       .  T
C1423      C1424   1.411       .  A
C1423      C1428   1.413       .  A
C1424      C1425   1.411       .  A
C1424      C1429   1.451       .  S
C1425      C1426   1.415       .  A
C1425      C1432   1.452       .  S
C1426      C1427   1.412       .  A
C1427      C1428   1.412       .  A
C1427      C1430   1.451       .  S
C1428      C1431   1.450       .  S
C1429      N1436   1.157       .  T
C1430      N1435   1.157       .  T
C1431      N1433   1.157       .  T
C1432      N1434   1.157       .  T
C1437      C1438   1.414       .  A
C1437      C1442   1.413       .  A
C1438      C1439   1.408       .  A
C1438      C1443   1.453       .  S
C1439      C1440   1.417       .  A
C1439      C1446   1.454       .  S
C1440      C1441   1.417       .  A
C1441      C1442   1.414       .  A
C1441      C1444   1.451       .  S
C1442      C1445   1.451       .  S
C1443      N1450   1.157       .  T
C1444      N1449   1.157   1_655  T
C1445      N1447   1.158       .  T
C1446      N1448   1.158       .  T
C1451      C1452   1.411       .  A
C1451      C1456   1.411       .  A
C1452      C1453   1.413       .  A
C1452      C1457   1.452       .  S
C1453      C1454   1.419       .  A
C1453      C1460   1.452       .  S
C1454      C1455   1.415       .  A
C1455      C1456   1.413       .  A
C1455      C1458   1.449       .  S
C1456      C1459   1.451       .  S
C1457      N1464   1.157       .  T
C1458      N1463   1.157       .  T
C1459      N1461   1.157       .  T
C1460      N1462   1.158       .  T
