geometry optimzed in LAMMPS
_audit_creation_date              2020-11-30 
_audit_creation_method            'lammps2cif' 
_symmetry_space_group_name_H-M    'P1' 
_symmetry_Int_Tables_number       1 
_symmetry_cell_setting            triclinic 
loop_ 
_symmetry_equiv_pos_as_xyz 
  x,y,z 
_cell_length_a                    31.54033178 
_cell_length_b                    31.688052651291002 
_cell_length_c                    31.874902488826837 
_cell_angle_alpha                 90.14001680707437 
_cell_angle_beta                  89.64174008981603 
_cell_angle_gamma                 90.05017658261515 
loop_ 
_atom_site_label 
_atom_site_type_symbol 
_atom_site_fract_x 
_atom_site_fract_y 
_atom_site_fract_z 
_atom_site_charge 
O1          O  0.52726548  0.39436078  0.07023990    -0.74600
O2          O  0.51302042  0.44584134  0.11871236    -0.53500
C3          C  0.52191661  0.40726502  0.10783976     0.79100
O4          O  0.61832242  0.50233329  0.91898440    -0.59200
O5          O  0.56751228  0.48715009  0.87032790    -0.52200
C6          C  0.60658584  0.49069235  0.88241104     0.71200
O7          O  0.62282262  0.50732148  0.05024652    -0.73700
O8          O  0.57909763  0.50960418  0.10736469    -0.54300
C9          C  0.61618167  0.50545836  0.08984926     0.77200
O10         O  0.50516566  0.38055323  0.93752908    -0.58900
O11         O  0.49510765  0.42281733  0.88060324    -0.52000
C12         C  0.49702811  0.38620072  0.89872048     0.73800
Zr13       Zr  0.51818073  0.41951300  0.00042841     2.54700
O14         O  0.58491791  0.38152961  0.99378778    -0.79500
O15         O  0.47698814  0.35656118  0.01728368    -0.92900
Zr16       Zr  0.58747252  0.52196554  0.98543009     2.64700
O17         O  0.66470569  0.52513931  0.98847678    -0.97800
O18         O  0.60383790  0.59647001  0.97588305    -0.79900
O19         O  0.55600930  0.47406776  0.03353132    -0.83200
O20         O  0.55244377  0.46430742  0.95226933    -2.18000
O21         O  0.38309117  0.47622759  0.93176390    -0.66600
O22         O  0.42810460  0.49016620  0.87689501    -0.51200
C23         C  0.39110388  0.48121389  0.89267398     0.72100
O24         O  0.49040642  0.62788358  0.05178265    -0.59500
O25         O  0.50898794  0.58382214  0.10546960    -0.51500
C26         C  0.50122324  0.62077354  0.08987607     0.73900
O27         O  0.47197435  0.61201490  0.91520215    -0.70900
O28         O  0.50588585  0.56516439  0.87249473    -0.49600
C29         C  0.49304005  0.60298646  0.88200796     0.75300
O30         O  0.38652867  0.49681284  0.06596939    -0.66300
O31         O  0.43710677  0.51801176  0.11281989    -0.53500
C32         C  0.39819666  0.51059100  0.10176121     0.73700
Zr33       Zr  0.41704114  0.48829205  0.99782675     2.77500
O34         O  0.35352979  0.53129911  0.99018725    -0.97000
O35         O  0.37901027  0.42220714  0.00801502    -0.77800
Zr36       Zr  0.48568300  0.58972698  0.98621825     2.70100
O37         O  0.41863900  0.62762179  0.98994818    -0.79100
O38         O  0.52728659  0.65378002  0.97575393    -0.98200
Zr39       Zr  0.50684851  0.51166216  0.07657052     2.21500
Zr40       Zr  0.49936219  0.49580575  0.90866928     2.11100
O41         O  0.44945866  0.53533467  0.95022180    -2.46900
O42         O  0.45293754  0.54291006  0.03392574    -0.78900
O43         O  0.46574862  0.44937097  0.95754400    -0.71100
O44         O  0.53999810  0.55974672  0.02810988    -2.32000
O45         O  0.46836135  0.45703278  0.04145943    -2.28200
O46         O  0.53514760  0.55254499  0.94346548    -0.72800
H47         H  0.57117672  0.44556994  0.93717687     0.79200
H48         H  0.55642932  0.58098020  0.04232303     0.80300
H49         H  0.42797570  0.54803557  0.93294578     0.82500
H50         H  0.45428179  0.43859342  0.06115305     0.80100
H51         H  0.60851846  0.59960898  0.94528699     0.43100
H52         H  0.54062671  0.65068530  0.94773835     0.42100
H53         H  0.42641278  0.65653431  0.99892839     0.41800
H54         H  0.33023327  0.51390803  0.00188946     0.39700
H55         H  0.34910228  0.43076238  0.01229181     0.42800
H56         H  0.49249672  0.33279258  0.00407064     0.37600
H57         H  0.60547898  0.39898370  0.00953918     0.43700
H58         H  0.67466223  0.49665460  0.98027431     0.40200
H59         H  0.35696438  0.55473981  0.01049987     0.45100
H60         H  0.45056026  0.35928417  0.00090832     0.43800
H61         H  0.67354763  0.54371079  0.96504555     0.43900
H62         H  0.50598884  0.67639905  0.97216420     0.44300
N63         N  0.20737901  0.54388329  0.19202352    -0.02800
C64         C  0.19413775  0.55847405  0.23047621    -0.00200
C65         C  0.22119108  0.58897114  0.24566707    -0.23100
C66         C  0.25343882  0.59245224  0.21767652    -0.23300
C67         C  0.24537969  0.56412255  0.18557322    -0.00300
H68         H  0.22031365  0.60322788  0.27657809     0.13500
H69         H  0.28236135  0.60996567  0.22316512     0.13500
N70         N  0.79629863  0.45311721  0.19829970    -0.02800
C71         C  0.80017053  0.43139298  0.23534972    -0.00200
C72         C  0.76473173  0.40627505  0.24203332    -0.23100
C73         C  0.73685904  0.41500230  0.21098214    -0.23300
C74         C  0.75593526  0.44450484  0.18551060    -0.00300
H75         H  0.75671253  0.38847378  0.26988964     0.13500
H76         H  0.70410890  0.40478832  0.20990796     0.13500
N77         N  0.20872548  0.47651260  0.77566932    -0.02800
C78         C  0.25018402  0.46695039  0.78402598    -0.00200
C79         C  0.26984970  0.44785698  0.75031029    -0.23100
C80         C  0.24080803  0.44571213  0.71932137    -0.23300
C81         C  0.20395099  0.46356585  0.73479706    -0.00300
H82         H  0.30279659  0.43851349  0.74795279     0.13500
H83         H  0.24687994  0.43511977  0.68752767     0.13500
N84         N  0.79204384  0.45020244  0.78872895    -0.02800
C85         C  0.75569594  0.42899130  0.79881207    -0.00200
C86         C  0.74563226  0.39980296  0.76814987    -0.23100
C87         C  0.77480181  0.40437810  0.73693658    -0.23300
C88         C  0.80197719  0.43603545  0.74941786    -0.00300
H89         H  0.71662533  0.38170585  0.76571914     0.13500
H90         H  0.77312070  0.39012469  0.70608461     0.13500
N91         N  0.00430609  0.48800993  0.05412555    -0.35900
N92         N  0.93668294  0.48045861  0.99129839    -0.56500
N93         N  0.00147351  0.48232148  0.92347776    -0.35900
N94         N  0.06840674  0.49726387  0.98564633    -0.56500
C95         C  0.96946973  0.48973399  0.07965651     0.27700
C96         C  0.03858431  0.50087974  0.07668203     0.27700
C97         C  0.96537349  0.48486340  0.90042356     0.27700
C98         C  0.03495318  0.49093808  0.89764960     0.27700
C99         C  0.91268666  0.47462300  0.02647670     0.36300
C100        C  0.91117067  0.47311478  0.95778695     0.36300
C101        C  0.09416293  0.49513412  0.01976049     0.36300
C102        C  0.09290143  0.48904401  0.95114701     0.36300
C103        C  0.98198504  0.50319214  0.11907681    -0.21200
C104        C  0.02508669  0.51064663  0.11711727    -0.21200
C105        C  0.97621132  0.49497428  0.85939925    -0.21200
C106        C  0.01972785  0.49914112  0.85775225    -0.21200
C107        C  0.87160719  0.46432348  0.01505526    -0.22200
C108        C  0.87060827  0.46354774  0.97189906    -0.22200
C109        C  0.13503287  0.48560359  0.00669178    -0.22200
C110        C  0.13420264  0.48152596  0.96366259    -0.22200
C111        C  0.92659795  0.47950440  0.06886846    -0.17600
C112        C  0.08198072  0.50222766  0.06264053    -0.17600
C113        C  0.07899886  0.48924893  0.90837604    -0.17600
C114        C  0.92306267  0.47633511  0.91452286    -0.17600
H115        H  0.96198251  0.50786838  0.14640541     0.15300
H116        H  0.04421239  0.52194927  0.14286208     0.15300
H117        H  0.95501725  0.49885060  0.83312628     0.15300
H118        H  0.03808424  0.50696366  0.83004679     0.15300
H119        H  0.84492946  0.45813003  0.03564665     0.13600
H120        H  0.84297336  0.45677069  0.95307846     0.13600
H121        H  0.16257814  0.48122822  0.02627433     0.13600
H122        H  0.16104134  0.47344804  0.94393821     0.13600
H123        H  0.00523036  0.47554761  0.02404907     0.26900
H124        H  0.00349607  0.47098562  0.95388861     0.26900
O125        O  0.05641369  0.50945796  0.36885113    -0.74600
O126        O  0.11187061  0.51772085  0.41374861    -0.53500
C127        C  0.09567338  0.51587835  0.37635137     0.79100
O128        O  0.91877601  0.59892712  0.52329461    -0.59200
O129        O  0.86951479  0.56094623  0.49028087    -0.52200
C130        C  0.88358483  0.59663974  0.50402010     0.71200
O131        O  0.05190589  0.62824222  0.49161159    -0.73700
O132        O  0.10953244  0.58477149  0.48639520    -0.54300
C133        C  0.09213264  0.62166340  0.49036041     0.77200
O134        O  0.92172564  0.49265438  0.37496686    -0.58900
O135        O  0.87226981  0.48085229  0.42641810    -0.52000
C136        C  0.88429417  0.48364741  0.38739161     0.73800
Zr137      Zr  0.99052645  0.49864282  0.40466164     2.54700
O138        O  0.98083199  0.54571960  0.34518029    -0.79500
O139        O  0.99534005  0.43525858  0.36150476    -0.92900
Zr140      Zr  0.98499515  0.59058317  0.48547693     2.64700
O141        O  0.96574210  0.62508464  0.42004683    -0.97800
O142        O  0.97647029  0.66397065  0.50697632    -0.79900
O143        O  0.03008637  0.54986144  0.44187038    -0.83200
O144        O  0.94496571  0.54065495  0.44648840    -2.18000
O145        O  0.93850171  0.37959321  0.50951444    -0.66600
O146        O  0.88016536  0.42156751  0.50259537    -0.51200
C147        C  0.89828065  0.38552123  0.50942319     0.72100
O148        O  0.06699295  0.51108083  0.60464842    -0.59500
O149        O  0.11772920  0.50879462  0.55294936    -0.51500
C150        C  0.10538176  0.50847531  0.59192161     0.73900
O151        O  0.93075977  0.50068023  0.60956083    -0.70900
O152        O  0.87514163  0.49082556  0.56533314    -0.49600
C153        C  0.89163931  0.49318666  0.60254392     0.75300
O154        O  0.07438506  0.41109931  0.52199185    -0.66300
O155        O  0.11844732  0.44565016  0.47937254    -0.53500
C156        C  0.10635523  0.41130829  0.49747053     0.73700
Zr157      Zr  0.00375265  0.41682681  0.49399214     2.77500
O158        O  0.01793415  0.34990943  0.52891187    -0.97000
O159        O  0.01462064  0.37276800  0.43215013    -0.77800
Zr160      Zr  0.99751942  0.50983847  0.57519734     2.70100
O161        O  0.00402270  0.46198689  0.63441972    -0.79100
O162        O  0.99212902  0.57257679  0.61917169    -0.98200
Zr163      Zr  0.07946228  0.51281913  0.48510777     2.21500
Zr164      Zr  0.90887545  0.49374266  0.49452197     2.11100
O165        O  0.95907632  0.45779640  0.53797955    -2.46900
O166        O  0.04200413  0.46777015  0.53285001    -0.78900
O167        O  0.95454055  0.45217068  0.45078433    -0.71100
O168        O  0.03426990  0.55531104  0.52918948    -2.32000
O169        O  0.03982013  0.46129665  0.44562628    -2.28200
O170        O  0.94873099  0.54548126  0.53311225    -0.72800
H171        H  0.92473441  0.55509277  0.42896194     0.79200
H172        H  0.05038712  0.57455517  0.54639054     0.80300
H173        H  0.94516965  0.43977447  0.55814162     0.82500
H174        H  0.05809726  0.44494060  0.42744749     0.80100
H175        H  0.97392474  0.66303222  0.53793918     0.43100
H176        H  0.98449980  0.56162911  0.64730761     0.42100
H177        H  0.00794823  0.43382708  0.62144391     0.41800
H178        H  0.00299812  0.35185711  0.55626870     0.39700
H179        H  0.03699773  0.35257227  0.44029641     0.42800
H180        H  0.99124249  0.44532140  0.33244415     0.37600
H181        H  0.97891476  0.52684271  0.32044612     0.43700
H182        H  0.95088114  0.65125959  0.42859525     0.40200
H183        H  0.00222996  0.32818946  0.51290293     0.45100
H184        H  0.96916790  0.41918878  0.36801922     0.43800
H185        H  0.99306404  0.63492882  0.40812890     0.43900
H186        H  0.02161631  0.58278516  0.62220319     0.44300
N187        N  0.50097803  0.79553909  0.21586834    -0.02800
C188        C  0.48957994  0.79698481  0.25745941    -0.00200
C189        C  0.48544594  0.75700492  0.27406893    -0.23100
C190        C  0.49475277  0.72946394  0.24289086    -0.23300
C191        C  0.50426263  0.75314617  0.20779631    -0.00300
H192        H  0.47863671  0.74882545  0.30638874     0.13500
H193        H  0.49462176  0.69538654  0.24541118     0.13500
N194        N  0.52559661  0.21946893  0.21076494    -0.02800
C195        C  0.52732523  0.21188342  0.25320833    -0.00200
C196        C  0.54676805  0.24438234  0.27447690    -0.23100
C197        C  0.55672202  0.27406314  0.24573510    -0.23300
C198        C  0.54307419  0.25925366  0.20732167    -0.00300
H199        H  0.55144661  0.24688992  0.30802915     0.13500
H200        H  0.56927276  0.30511317  0.25269259     0.13500
N201        N  0.45081178  0.20088349  0.79859691    -0.02800
C202        C  0.43835902  0.23993152  0.81192933    -0.00200
C203        C  0.40614531  0.25563095  0.78744967    -0.23100
C204        C  0.39947604  0.22695721  0.75647744    -0.23300
C205        C  0.42782896  0.19443009  0.76290314    -0.00300
H206        H  0.39301990  0.28718221  0.78869669     0.13500
H207        H  0.38047608  0.23237097  0.72885331     0.13500
N208        N  0.54197956  0.79486528  0.80061340    -0.02800
C209        C  0.55885807  0.75512791  0.80563288    -0.00200
C210        C  0.58666483  0.74566527  0.77317481    -0.23100
C211        C  0.58674459  0.77900895  0.74670301    -0.23300
C212        C  0.55874685  0.80808356  0.76306022    -0.00300
H213        H  0.60146885  0.71557405  0.76647591     0.13500
H214        H  0.60170153  0.77987496  0.71603461     0.13500
N215        N  0.49910201  0.00694302  0.07396285    -0.35900
N216        N  0.50789166  0.93755153  0.01009077    -0.56500
N217        N  0.49900008  0.99969769  0.94256685    -0.35900
N218        N  0.49840916  0.06964976  0.00601234    -0.56500
C219        C  0.50595550  0.97306877  0.09938677     0.27700
C220        C  0.50465050  0.04301136  0.09703364     0.27700
C221        C  0.51060105  0.96510440  0.91952144     0.27700
C222        C  0.50214838  0.03422334  0.91735783     0.27700
C223        C  0.50119374  0.91424163  0.04544837     0.36300
C224        C  0.50487293  0.91081358  0.97649769     0.36300
C225        C  0.49367289  0.09625788  0.03950328     0.36300
C226        C  0.48907655  0.09198530  0.97073712     0.36300
C227        C  0.51532507  0.98795854  0.13927241    -0.21200
C228        C  0.51463329  0.03154639  0.13777151    -0.21200
C229        C  0.52125074  0.97818085  0.87928976    -0.21200
C230        C  0.51557986  0.02131374  0.87784680    -0.21200
C231        C  0.49372376  0.87260660  0.03391203    -0.22200
C232        C  0.49622663  0.87046370  0.99075734    -0.22200
C233        C  0.48154414  0.13566600  0.02519678    -0.22200
C234        C  0.47820545  0.13288200  0.98214274    -0.22200
C235        C  0.50329623  0.92903193  0.08817836    -0.17600
C236        C  0.50038866  0.08601000  0.08288646    -0.17600
C237        C  0.49215667  0.07705063  0.92818614    -0.17600
C238        C  0.51040284  0.92189004  0.93307691    -0.17600
H239        H  0.52244566  0.96937831  0.16677457     0.15300
H240        H  0.52103444  0.05236438  0.16393455     0.15300
H241        H  0.53210089  0.95877021  0.85340319     0.15300
H242        H  0.52127135  0.04105886  0.85072719     0.15300
H243        H  0.48687351  0.84627625  0.05442063     0.13600
H244        H  0.49159437  0.84236187  0.97197263     0.13600
H245        H  0.47506482  0.16348973  0.04391216     0.13600
H246        H  0.46903928  0.15837095  0.96159665     0.13600
H247        H  0.48849988  0.00514864  0.04331401     0.26900
H248        H  0.48593014  0.99959850  0.97250731     0.26900
N249        N  0.21257962  0.79971733  0.52831820    -0.02800
C250        C  0.20279728  0.75786535  0.53368993    -0.00200
C251        C  0.23373480  0.73747349  0.55624999    -0.23100
C252        C  0.26453469  0.76628544  0.56419911    -0.23300
C253        C  0.25203027  0.80382765  0.54605148    -0.00300
H254        H  0.23510932  0.70413282  0.56347244     0.13500
H255        H  0.29497793  0.75929790  0.57805056     0.13500
N256        N  0.78370409  0.20377630  0.54283765    -0.02800
C257        C  0.74346633  0.19882989  0.55913910    -0.00200
C258        C  0.73221360  0.23372318  0.58296110    -0.23100
C259        C  0.76501496  0.26135098  0.58113719    -0.23300
C260        C  0.79573775  0.24321953  0.55610282    -0.00300
H261        H  0.70126332  0.24096126  0.59593992     0.13500
H262        H  0.76449405  0.29353781  0.59264888     0.13500
N263        N  0.19370914  0.21740191  0.47243013    -0.02800
C264        C  0.23482310  0.20783254  0.46204214    -0.00200
C265        C  0.25182283  0.23772861  0.43551772    -0.23100
C266        C  0.22129793  0.26729465  0.42942251    -0.23300
C267        C  0.18620173  0.25505634  0.45261717    -0.00300
H268        H  0.28423058  0.23936994  0.42425156     0.13500
H269        H  0.22591134  0.29703304  0.41336812     0.13500
N270        N  0.79663067  0.79014431  0.47316759    -0.02800
C271        C  0.80074704  0.75016937  0.45711085    -0.00200
C272        C  0.76376295  0.73757747  0.43764913    -0.23100
C273        C  0.73542231  0.76952657  0.44238297    -0.23300
C274        C  0.75562420  0.80098678  0.46454275    -0.00300
H275        H  0.75669473  0.70662045  0.42503925     0.13500
H276        H  0.70233905  0.76867334  0.43353706     0.13500
N277        N  0.00161563  0.93603583  0.50480281    -0.35900
N278        N  0.06423937  0.00476833  0.50923499    -0.56500
N279        N  0.99395604  0.06684198  0.50902423    -0.35900
N280        N  0.93151027  0.99809411  0.51162995    -0.56500
C281        C  0.03745400  0.91377066  0.51353415     0.27700
C282        C  0.96769602  0.91030036  0.51172186     0.27700
C283        C  0.02795528  0.09284184  0.51398252     0.27700
C284        C  0.95818524  0.08930942  0.51832863     0.27700
C285        C  0.09098969  0.97154324  0.50334617     0.36300
C286        C  0.08708622  0.04057700  0.50237254     0.36300
C287        C  0.90906760  0.96279594  0.50167516     0.36300
C288        C  0.90484470  0.03160352  0.50738309     0.36300
C289        C  0.02591339  0.87354854  0.52642892    -0.21200
C290        C  0.98222944  0.87129577  0.52501940    -0.21200
C291        C  0.01354458  0.13233396  0.52627888    -0.21200
C292        C  0.96994361  0.13004295  0.52934835    -0.21200
C293        C  0.13107723  0.98646413  0.49316534    -0.22200
C294        C  0.12859258  0.02986684  0.49237111    -0.22200
C295        C  0.86812630  0.97419331  0.49078484    -0.22200
C296        C  0.86537628  0.01738303  0.49480725    -0.22200
C297        C  0.08034346  0.92794672  0.50851706    -0.17600
C298        C  0.92406735  0.92026050  0.50455149    -0.17600
C299        C  0.91512977  0.07489330  0.51528757    -0.17600
C300        C  0.07157109  0.08288648  0.50597813    -0.17600
H301        H  0.04680614  0.84820854  0.53571750     0.15300
H302        H  0.96327750  0.84396474  0.53306116     0.15300
H303        H  0.03254200  0.16007279  0.53255840     0.15300
H304        H  0.94930452  0.15579353  0.53840198     0.15300
H305        H  0.15922404  0.96800525  0.48664366     0.13600
H306        H  0.15454972  0.05105712  0.48518821     0.13600
H307        H  0.84263388  0.95358521  0.48104534     0.13600
H308        H  0.83755287  0.03625633  0.48856161     0.13600
H309        H  0.00039146  0.96555770  0.49078478     0.26900
H310        H  0.99507554  0.03675862  0.49620474     0.26900
O311        O  0.40135449  0.92903257  0.48422894    -0.74600
O312        O  0.44146602  0.88377733  0.51994535    -0.53500
C313        C  0.40495821  0.89562458  0.50602459     0.79100
O314        O  0.50177699  0.06878650  0.38757179    -0.59200
O315        O  0.48869158  0.12434711  0.43140042    -0.52200
C316        C  0.49710517  0.10813571  0.39474806     0.71200
O317        O  0.50692007  0.93697613  0.39113038    -0.73700
O318        O  0.50566666  0.88545395  0.44130149    -0.54300
C319        C  0.50705286  0.89851827  0.40271408     0.77200
O320        O  0.37060542  0.06209305  0.50558315    -0.58900
O321        O  0.41373148  0.12007887  0.50207941    -0.52000
C322        C  0.37666934  0.10207663  0.50236516     0.73800
Zr323      Zr  0.41118392  0.99777839  0.51529195     2.54700
O324        O  0.33720218  0.98677990  0.49630250    -0.79500
O325        O  0.38170771  0.98471519  0.58498967    -0.92900
Zr326      Zr  0.48889726  0.00323339  0.42170345     2.64700
O327        O  0.41619382  0.99753318  0.39659085    -0.97800
O328        O  0.50744616  0.99999304  0.34740201    -0.79900
O329        O  0.45522628  0.95799022  0.46931597    -0.83200
O330        O  0.44375620  0.04334138  0.46530104    -2.18000
O331        O  0.48930258  0.07788199  0.62141407    -0.66600
O332        O  0.47620935  0.12781492  0.57128860    -0.51200
C333        C  0.47860252  0.11483462  0.60977260     0.72100
O334        O  0.62425629  0.95285811  0.49381995    -0.59500
O335        O  0.58150788  0.89545073  0.50449392    -0.51500
C336        C  0.61812905  0.91297662  0.49792352     0.73900
O337        O  0.59468529  0.08970050  0.47080009    -0.70900
O338        O  0.55368238  0.13350571  0.50841698    -0.49600
C339        C  0.59042285  0.12221980  0.49413815     0.75300
O340        O  0.52397532  0.94707550  0.62536191    -0.66300
O341        O  0.51840716  0.89109605  0.58053629    -0.53500
C342        C  0.52422862  0.90756001  0.61753173     0.73700
Zr343      Zr  0.50703300  0.01154595  0.59108660     2.77500
O344        O  0.56872344  0.03045103  0.63284418    -0.97000
O345        O  0.46187346  0.99816455  0.65179612    -0.77800
Zr346      Zr  0.58527419  0.01866869  0.49763443     2.70100
O347        O  0.63134386  0.03850919  0.55543676    -0.79100
O348        O  0.64823333  0.01912170  0.45288811    -0.98200
Zr349      Zr  0.50866998  0.92320830  0.50964954     2.21500
Zr350      Zr  0.48737221  0.09232488  0.50279302     2.11100
O351        O  0.54104242  0.05754570  0.54396992    -2.46900
O352        O  0.55224609  0.97273206  0.54635089    -0.78900
O353        O  0.45371615  0.04629310  0.55211406    -0.71100
O354        O  0.54315730  0.96949678  0.46032720    -2.32000
O355        O  0.46321056  0.96258850  0.55606448    -2.28200
O356        O  0.53253601  0.05205763  0.45682931    -0.72800
H357        H  0.42359262  0.05789519  0.44780472     0.79200
H358        H  0.56178149  0.95394690  0.44172799     0.80300
H359        H  0.55730384  0.07732460  0.56033636     0.82500
H360        H  0.44994877  0.94389490  0.57623000     0.80100
H361        H  0.48040214  0.00340585  0.33218843     0.43100
H362        H  0.63735588  0.02374107  0.42420063     0.42100
H363        H  0.64170129  0.01132514  0.56664556     0.41800
H364        H  0.55796397  0.03180212  0.66205928     0.39700
H365        H  0.47783033  0.00968024  0.67591349     0.42800
H366        H  0.35951003  0.96299988  0.58098141     0.37600
H367        H  0.32743332  0.96231376  0.51302355     0.43700
H368        H  0.41539260  0.01462110  0.37065509     0.40200
H369        H  0.58707816  0.00512054  0.63216847     0.45100
H370        H  0.36599466  0.01081679  0.59210073     0.43800
H371        H  0.41349976  0.96795778  0.38686621     0.43900
H372        H  0.66352996  0.04545669  0.46000560     0.44300
C373        C  0.65680832  0.88629676  0.49416342    -0.04800
C374        C  0.69069322  0.89967180  0.46820369    -0.32200
C375        C  0.72663033  0.87424882  0.46192933     0.37100
C376        C  0.72993043  0.83547339  0.48280396    -0.05100
C377        C  0.69779956  0.82378656  0.51133327    -0.32100
C378        C  0.66118130  0.84834220  0.51650558     0.37000
H379        H  0.68837070  0.92896066  0.45090591     0.17300
O380        O  0.75699478  0.88629989  0.43337258    -0.59600
H381        H  0.69940391  0.79344813  0.52688114     0.17400
O382        O  0.62974031  0.83465778  0.54310427    -0.59700
H383        H  0.61296603  0.81416892  0.52646428     0.44400
H384        H  0.74829334  0.87334318  0.40640683     0.44300
C385        C  0.83072988  0.81925667  0.48442968    -0.04800
C386        C  0.82585627  0.84811443  0.51777695    -0.32200
C387        C  0.85637112  0.87984524  0.52561262     0.37100
C388        C  0.89258587  0.88416429  0.49948808    -0.05100
C389        C  0.89809413  0.85445473  0.46699477    -0.32100
C390        C  0.86777546  0.82262390  0.45928464     0.37000
H391        H  0.79798315  0.84633827  0.53767190     0.17300
O392        O  0.84987372  0.90724090  0.55836727    -0.59600
H393        H  0.92550432  0.85681991  0.44647641     0.17400
O394        O  0.87387507  0.79616936  0.42569016    -0.59700
H395        H  0.85760413  0.80893567  0.40242092     0.44400
H396        H  0.86518371  0.89467116  0.58235788     0.44300
C397        C  0.26342241  0.17648134  0.48157899    -0.04800
C398        C  0.29601226  0.19188131  0.50752871    -0.32200
C399        C  0.33270644  0.16807530  0.51519206     0.37100
C400        C  0.33745024  0.12786520  0.49693363    -0.05100
C401        C  0.30351550  0.11139634  0.47317202    -0.32100
C402        C  0.26721390  0.13564183  0.46481692     0.37000
H403        H  0.29417483  0.22380010  0.51969817     0.17300
O404        O  0.36410567  0.18495808  0.53963574    -0.59600
H405        H  0.30610726  0.08034051  0.45909808     0.17400
O406        O  0.23689207  0.12011363  0.43822254    -0.59700
H407        H  0.24375350  0.13229119  0.41034904     0.44400
H408        H  0.36065190  0.17138309  0.56745797     0.44300
C409        C  0.16130099  0.18656390  0.48408638    -0.04800
C410        C  0.12726296  0.17873221  0.45673494    -0.32200
C411        C  0.09835800  0.14558674  0.46390571     0.37100
C412        C  0.10224320  0.11929404  0.49933202    -0.05100
C413        C  0.13550715  0.12779730  0.52756696    -0.32100
C414        C  0.16471956  0.16100555  0.52021301     0.37000
H415        H  0.12401291  0.19750473  0.42859691     0.17300
O416        O  0.06667213  0.13859552  0.43544688    -0.59600
H417        H  0.13901193  0.10838222  0.55524383     0.17400
O418        O  0.19660935  0.16791943  0.54843394    -0.59700
H419        H  0.18880187  0.19436837  0.56327269     0.44400
H420        H  0.07733110  0.11561358  0.41703559     0.44300
C421        C  0.70865494  0.17126244  0.54283362    -0.04800
C422        C  0.70370117  0.16539271  0.49940827    -0.32200
C423        C  0.66495928  0.15071996  0.48276614     0.37100
C424        C  0.62986432  0.14288962  0.50943727    -0.05100
C425        C  0.63509564  0.14802474  0.55274841    -0.32100
C426        C  0.67400660  0.16101380  0.56948832     0.37000
H427        H  0.72909062  0.17424674  0.47813561     0.17300
O428        O  0.66088585  0.14644977  0.44015966    -0.59600
H429        H  0.60916939  0.14071363  0.57400692     0.17400
O430        O  0.67726952  0.16552772  0.61218010    -0.59700
H431        H  0.68190913  0.13660216  0.62301365     0.44400
H432        H  0.67615170  0.12007360  0.43288036     0.44300
C433        C  0.87900854  0.10678902  0.52062275    -0.04800
C434        C  0.87507557  0.14163039  0.49341321    -0.32200
C435        C  0.84321840  0.17278623  0.49931374     0.37100
C436        C  0.81354995  0.16962679  0.53262031    -0.05100
C437        C  0.81667210  0.13404210  0.55902985    -0.32100
C438        C  0.84868955  0.10312494  0.55333378     0.37000
H439        H  0.89728155  0.14503746  0.46758585     0.17300
O440        O  0.84057091  0.20561627  0.47152227    -0.59600
H441        H  0.79499074  0.13093301  0.58532201     0.17400
O442        O  0.85138471  0.07043669  0.58133075    -0.59700
H443        H  0.82816663  0.05080550  0.57368023     0.44400
H444        H  0.86735635  0.22172327  0.47466275     0.47000
C445        C  0.28513781  0.83642960  0.53724156    -0.04800
C446        C  0.31604154  0.84391648  0.56824688    -0.32200
C447        C  0.35578744  0.86113224  0.55810499     0.37100
C448        C  0.36502877  0.87296445  0.51658525    -0.05100
C449        C  0.33296789  0.86885684  0.48621002    -0.32100
C450        C  0.29363467  0.85016877  0.49605454     0.37000
H451        H  0.31030545  0.83373955  0.60021880     0.17300
O452        O  0.38500459  0.86708538  0.58926154    -0.59600
H453        H  0.33897806  0.87900543  0.45428422     0.17400
O454        O  0.26553893  0.84199371  0.46441722    -0.59700
H455        H  0.24871045  0.86822465  0.46150587     0.44400
H456        H  0.40252455  0.84111609  0.58908833     0.44300
C457        C  0.11610941  0.89575386  0.51119855    -0.04800
C458        C  0.14567943  0.89836669  0.54392341    -0.32200
C459        C  0.17828704  0.86827892  0.54853036     0.37100
C460        C  0.18215911  0.83374200  0.52044212    -0.05100
C461        C  0.15305416  0.83150184  0.48706464    -0.32100
C462        C  0.12057487  0.86205736  0.48223991     0.37000
H463        H  0.14299640  0.92364799  0.56672398     0.17300
O464        O  0.20462029  0.87157206  0.58242612    -0.59600
H465        H  0.15528183  0.80578277  0.46475228     0.17400
O466        O  0.09373530  0.85914816  0.44866158    -0.59700
H467        H  0.07392446  0.83582962  0.45558522     0.44400
H468        H  0.22448428  0.89484427  0.57545718     0.44300
C469        C  0.54067242  0.83896442  0.73347576    -0.04800
C470        C  0.51209023  0.82405178  0.70295483    -0.32200
C471        C  0.50705857  0.84507376  0.66444617     0.37100
C472        C  0.53115148  0.88138435  0.65564667    -0.05100
C473        C  0.55800739  0.89735798  0.68731058    -0.32100
C474        C  0.56276814  0.87656592  0.72572292     0.37000
H475        H  0.49553062  0.79450904  0.70803484     0.17300
O476        O  0.47767923  0.83060248  0.63634558    -0.59600
H477        H  0.57603024  0.92600572  0.68197377     0.17400
O478        O  0.59159581  0.89152971  0.75419906    -0.59700
H479        H  0.57438313  0.90289549  0.77780167     0.44400
H480        H  0.49346718  0.81118893  0.61749329     0.44300
C481        C  0.53107609  0.82396366  0.83505560    -0.04800
C482        C  0.55753192  0.82708277  0.87051680    -0.32200
C483        C  0.55094247  0.85794403  0.90224500     0.37100
C484        C  0.51676960  0.88680374  0.90004800    -0.05100
C485        C  0.48987936  0.88324704  0.86480514    -0.32100
C486        C  0.49721433  0.85305227  0.83241641     0.37000
H487        H  0.58471218  0.80638394  0.87287768     0.17300
O488        O  0.57976864  0.86127594  0.93412257    -0.59600
H489        H  0.46341930  0.90477000  0.86183631     0.17400
O490        O  0.47070816  0.85194559  0.79850195    -0.59700
H491        H  0.47619646  0.87855550  0.78303750     0.44400
H492        H  0.57486216  0.83622888  0.95209899     0.44300
C493        C  0.46553428  0.14157092  0.64503226    -0.04800
C494        C  0.42361849  0.13737416  0.65924170    -0.32200
C495        C  0.41171148  0.15132927  0.69928890     0.37100
C496        C  0.44202431  0.16954681  0.72613711    -0.05100
C497        C  0.48425707  0.17291355  0.71230202    -0.32100
C498        C  0.49619492  0.15841324  0.67230117     0.37000
H499        H  0.40034370  0.12159939  0.63980978     0.17300
O500        O  0.37045821  0.14645442  0.71241566    -0.59600
H501        H  0.50775925  0.18787191  0.73204820     0.17400
O502        O  0.53797656  0.16031910  0.66023032    -0.59700
H503        H  0.55037784  0.13296917  0.66891085     0.44400
H504        H  0.35369880  0.16660100  0.69548631     0.44300
C505        C  0.48434098  0.10787364  0.89238040    -0.04800
C506        C  0.44966958  0.10163964  0.86553921    -0.32200
C507        C  0.43979007  0.13063719  0.83349429     0.37100
C508        C  0.46474885  0.16738815  0.82707270    -0.05100
C509        C  0.50069499  0.17261781  0.85271240    -0.32100
C510        C  0.51080684  0.14315327  0.88453940     0.37000
H511        H  0.42927856  0.07449325  0.87017288     0.17300
O512        O  0.40456641  0.12329968  0.80954061    -0.59600
H513        H  0.52070729  0.20006433  0.84846959     0.17400
O514        O  0.54628636  0.14965939  0.90834366    -0.59700
H515        H  0.56701539  0.12817816  0.89860950     0.44400
H516        H  0.38011105  0.13164562  0.82741109     0.44300
C517        C  0.50221636  0.13432745  0.35648353    -0.04800
C518        C  0.53299679  0.12214124  0.32643503    -0.32200
C519        C  0.53704205  0.14304790  0.28794954     0.37100
C520        C  0.51005704  0.17683050  0.27846880    -0.05100
C521        C  0.47735975  0.18710133  0.30720036    -0.32100
C522        C  0.47353217  0.16639913  0.34601230     0.37000
H523        H  0.55491986  0.09680553  0.33334970     0.17300
O524        O  0.57047711  0.13331681  0.26195690    -0.59600
H525        H  0.45709472  0.21396526  0.30108439     0.17400
O526        O  0.44140844  0.17739799  0.37307263    -0.59700
H527        H  0.45437206  0.19744724  0.39320688     0.44400
H528        H  0.55776533  0.11816765  0.23784325     0.44300
C529        C  0.50463235  0.12232357  0.11494719    -0.04800
C530        C  0.53835182  0.15148716  0.11186446    -0.32200
C531        C  0.54440747  0.18414459  0.14190634     0.37100
C532        C  0.51687272  0.18866900  0.17702602    -0.05100
C533        C  0.48262657  0.15998052  0.17974585    -0.32100
C534        C  0.47605412  0.12791150  0.14908196     0.37000
H535        H  0.56087029  0.14843995  0.08624295     0.17300
O536        O  0.57915560  0.20985543  0.13789467    -0.59600
H537        H  0.46058308  0.16250132  0.20578802     0.17400
O538        O  0.44150697  0.10193401  0.15305973    -0.59700
H539        H  0.42026976  0.11333204  0.13326487     0.44400
H540        H  0.57231527  0.22934430  0.11460058     0.44300
C541        C  0.50480609  0.86924562  0.36707878    -0.04800
C542        C  0.46453451  0.85496754  0.35555437    -0.32200
C543        C  0.45764670  0.83731653  0.31594386     0.37100
C544        C  0.49152204  0.83260035  0.28718613    -0.05100
C545        C  0.53148432  0.84868133  0.29787982    -0.32100
C546        C  0.53810610  0.86741211  0.33729866     0.37000
H547        H  0.43792013  0.85879843  0.37691670     0.17300
O548        O  0.41820337  0.82179664  0.30659571    -0.59600
H549        H  0.55818421  0.84426267  0.27676403     0.17400
O550        O  0.57711568  0.88416491  0.34635818    -0.59700
H551        H  0.59180356  0.86215729  0.36287373     0.44400
H552        H  0.40302788  0.84567621  0.29339926     0.44300
C553        C  0.50375836  0.83059405  0.18603430    -0.04800
C554        C  0.47272914  0.86259726  0.18598482    -0.32200
C555        C  0.47248286  0.89467105  0.15509926     0.37100
C556        C  0.50395152  0.89604474  0.12322405    -0.05100
C557        C  0.53587760  0.86486892  0.12431070    -0.32100
C558        C  0.53602590  0.83273632  0.15506150     0.37000
H559        H  0.44761148  0.86196124  0.20929053     0.17300
O560        O  0.44085818  0.92431522  0.15610319    -0.59600
H561        H  0.56084674  0.86527632  0.10083007     0.17400
O562        O  0.56821889  0.80372091  0.15452736    -0.59700
H563        H  0.58727610  0.81215102  0.17771626     0.44400
H564        H  0.41685222  0.91130163  0.14084788     0.44300
C565        C  0.82697017  0.27189529  0.53626793    -0.04800
C566        C  0.81156749  0.30155605  0.50721198    -0.32200
C567        C  0.83354555  0.33923603  0.49892758     0.37100
C568        C  0.87251453  0.34720884  0.51859771    -0.05100
C569        C  0.88873530  0.31660197  0.54633338    -0.32100
C570        C  0.86599706  0.27967069  0.55569614     0.37000
H571        H  0.78064866  0.29689726  0.49328360     0.17300
O572        O  0.81659576  0.36796408  0.47166988    -0.59600
H573        H  0.91853380  0.32209976  0.56218977     0.17400
O574        O  0.88042465  0.25312817  0.58637788    -0.59700
H575        H  0.90306364  0.23614546  0.57275904     0.44400
H576        H  0.79690746  0.38527717  0.48893046     0.44300
C577        C  0.86278024  0.63696366  0.49318877    -0.04800
C578        C  0.85845856  0.64722989  0.45075555    -0.32200
C579        C  0.84435398  0.68723722  0.43864374     0.37100
C580        C  0.83191694  0.71728856  0.46907011    -0.05100
C581        C  0.83808868  0.70782783  0.51162753    -0.32100
C582        C  0.85425441  0.66827243  0.52371274     0.37000
H583        H  0.86709931  0.62444091  0.42677892     0.17300
O584        O  0.84059288  0.69606615  0.39673390    -0.59600
H585        H  0.82811138  0.73009245  0.53557108     0.17400
O586        O  0.86075183  0.66017126  0.56542355    -0.59700
H587        H  0.83332461  0.64904639  0.57603373     0.44400
H588        H  0.86913477  0.70584773  0.38782575     0.44300
C589        C  0.15470749  0.28805872  0.46464021    -0.04800
C590        C  0.15025738  0.29970091  0.50701818    -0.32200
C591        C  0.13535107  0.34011707  0.51820434     0.37100
C592        C  0.12557020  0.36995408  0.48684491    -0.05100
C593        C  0.12765537  0.35745499  0.44472963    -0.32100
C594        C  0.14079814  0.31665149  0.43364014     0.37000
H595        H  0.16118988  0.27864096  0.53138315     0.17300
O596        O  0.13181372  0.35059693  0.55987435    -0.59600
H597        H  0.11817985  0.37914861  0.42028259     0.17400
O598        O  0.14278233  0.30582316  0.39197773    -0.59700
H599        H  0.11335768  0.29800200  0.38436650     0.44400
H600        H  0.15574085  0.37011752  0.56547298     0.44300
C601        C  0.11906349  0.65995103  0.49593337    -0.04800
C602        C  0.10391499  0.69330324  0.52139381    -0.32200
C603        C  0.12907251  0.72880414  0.53011716     0.37100
C604        C  0.16985509  0.73209782  0.51268115    -0.05100
C605        C  0.18386878  0.70024691  0.48485305    -0.32100
C606        C  0.15915749  0.66422454  0.47685088     0.37000
H607        H  0.07317075  0.69086123  0.53654982     0.17300
O608        O  0.11517471  0.75793117  0.55893297    -0.59600
H609        H  0.21569448  0.70173525  0.47189905     0.17400
O610        O  0.17460870  0.63341932  0.45060300    -0.59700
H611        H  0.19347407  0.61595121  0.46826836     0.44400
H612        H  0.09696671  0.77754654  0.54289901     0.44300
C613        C  0.82503922  0.46038530  0.71696750    -0.04800
C614        C  0.80211135  0.47644675  0.68254608    -0.32200
C615        C  0.82263877  0.48811085  0.64502524     0.37100
C616        C  0.86690626  0.48421871  0.64164634    -0.05100
C617        C  0.88966795  0.47062158  0.67740842    -0.32100
C618        C  0.86919335  0.45886713  0.71455718     0.37000
H619        H  0.76778761  0.47749340  0.68395749     0.17300
O620        O  0.79901541  0.50167342  0.61172679    -0.59600
H621        H  0.92379509  0.46705372  0.67624650     0.17400
O622        O  0.89240144  0.44221452  0.74676572    -0.59700
H623        H  0.90302077  0.46693655  0.76270545     0.44400
H624        H  0.79853926  0.53287172  0.61419705     0.44300
C625        C  0.82461034  0.45765019  0.82010177    -0.04800
C626        C  0.84460279  0.42309956  0.83948327    -0.32200
C627        C  0.87641718  0.42893476  0.86978133     0.37100
C628        C  0.88905156  0.46991504  0.88177255    -0.05100
C629        C  0.86912906  0.50455418  0.86241445    -0.32100
C630        C  0.83751956  0.49862027  0.83161844     0.37000
H631        H  0.83553782  0.39131383  0.83073061     0.17300
O632        O  0.89559985  0.39427215  0.88698060    -0.59600
H633        H  0.87838530  0.53631376  0.87103522     0.17400
O634        O  0.81928930  0.53305950  0.81318205    -0.59700
H635        H  0.83538461  0.53727829  0.78668982     0.44400
H636        H  0.87854579  0.38745922  0.91231236     0.44300
C637        C  0.17107285  0.47580639  0.70412034    -0.04800
C638        C  0.16565125  0.51859965  0.69386654    -0.32200
C639        C  0.14734890  0.53037277  0.65533267     0.37100
C640        C  0.13512254  0.49920298  0.62611338    -0.05100
C641        C  0.13973638  0.45666556  0.63689821    -0.32100
C642        C  0.15716091  0.44491198  0.67532094     0.37000
H643        H  0.17758966  0.54285484  0.71470963     0.17300
O644        O  0.14117148  0.57227160  0.64660804    -0.59600
H645        H  0.12843231  0.43226956  0.61582931     0.17400
O646        O  0.16295210  0.40281652  0.68344012    -0.59700
H647        H  0.14012655  0.39521150  0.70357452     0.44400
H648        H  0.16942026  0.58311405  0.63800176     0.44300
C649        C  0.17490594  0.48253035  0.80686754    -0.04800
C650        C  0.14139337  0.45320831  0.80953702    -0.32200
C651        C  0.11086018  0.45487874  0.84217652     0.37100
C652        C  0.11197472  0.48717213  0.87292685    -0.05100
C653        C  0.14500737  0.51720837  0.86968593    -0.32100
C654        C  0.17621171  0.51490242  0.83748623     0.37000
H655        H  0.13985185  0.42762777  0.78700896     0.17300
O656        O  0.08037183  0.42405940  0.84418804    -0.59600
H657        H  0.14680446  0.54252305  0.89250150     0.17400
O658        O  0.20784026  0.54455275  0.83637299    -0.59700
H659        H  0.19880364  0.56536370  0.81504259     0.44400
H660        H  0.09418400  0.39987672  0.85828085     0.44300
C661        C  0.82533414  0.44508409  0.27278893    -0.04800
C662        C  0.82899493  0.41714535  0.30713989    -0.32200
C663        C  0.84328363  0.43087015  0.34645833     0.37100
C664        C  0.85585633  0.47293204  0.35223403    -0.05100
C665        C  0.85364406  0.50068301  0.31781158    -0.32100
C666        C  0.83785842  0.48740317  0.27875900     0.37000
H667        H  0.82015649  0.38429345  0.30378364     0.17300
O668        O  0.84667708  0.40234857  0.37858246    -0.59600
H669        H  0.86523544  0.53273134  0.32101333     0.17400
O670        O  0.83467697  0.51622199  0.24693768    -0.59700
H671        H  0.80781832  0.53157788  0.25243876     0.44400
H672        H  0.87602984  0.39127671  0.37664226     0.44300
C673        C  0.83107445  0.46154463  0.16866300    -0.04800
C674        C  0.83185702  0.49867736  0.14440485    -0.32200
C675        C  0.86307413  0.50530215  0.11289699     0.37100
C676        C  0.89412982  0.47429304  0.10408267    -0.05100
C677        C  0.89353833  0.43730544  0.12840034    -0.32100
C678        C  0.86263959  0.43074534  0.16006268     0.37000
H679        H  0.80790868  0.52257468  0.14976379     0.17300
O680        O  0.86254512  0.54206491  0.09036033    -0.59600
H681        H  0.91676803  0.41287022  0.12221033     0.17400
O682        O  0.86294938  0.39332684  0.18156430    -0.59700
H683        H  0.84192463  0.37515831  0.16716345     0.44400
H684        H  0.88239405  0.56119787  0.10515851     0.44300
C685        C  0.16697997  0.53640016  0.26148064    -0.04800
C686        C  0.18695201  0.51820138  0.29666467    -0.32200
C687        C  0.16504763  0.51223887  0.33477265     0.37100
C688        C  0.12177353  0.52242681  0.33763345    -0.05100
C689        C  0.10144302  0.53822664  0.30141259    -0.32100
C690        C  0.12376021  0.54588530  0.26409458     0.37000
H691        H  0.22074964  0.51206868  0.29564945     0.17300
O692        O  0.18640598  0.49715786  0.36892868    -0.59600
H693        H  0.06821844  0.54681480  0.30252230     0.17400
O694        O  0.10403686  0.56660167  0.23193278    -0.59700
H695        H  0.09318370  0.54405352  0.21325716     0.44400
H696        H  0.19921527  0.52241804  0.38225894     0.44300
C697        C  0.11668144  0.51131868  0.09477320    -0.04800
C698        C  0.12230024  0.48512370  0.13009014    -0.32200
C699        C  0.15245957  0.49467511  0.16163170     0.37100
C700        C  0.17861959  0.53075165  0.15834260    -0.05100
C701        C  0.17413119  0.55598949  0.12217339    -0.32100
C702        C  0.14383931  0.54667097  0.09089091     0.37000
H703        H  0.10267737  0.45727289  0.13357439     0.17300
O704        O  0.15701975  0.46784249  0.19497623    -0.59600
H705        H  0.19342663  0.58406459  0.11872240     0.17400
O706        O  0.13963717  0.57359670  0.05752798    -0.59700
H707        H  0.16469580  0.56820746  0.03934008     0.44400
H708        H  0.12957305  0.46864473  0.21031109     0.44300
C709        C  0.52599176  0.37283209  0.13858484    -0.04800
C710        C  0.56678152  0.35749082  0.14667103    -0.32200
C711        C  0.57278356  0.31726322  0.16381334     0.37100
C712        C  0.53771384  0.29129870  0.17390111    -0.05100
C713        C  0.49685656  0.30618327  0.16487165    -0.32100
C714        C  0.49094833  0.34629496  0.14685434     0.37000
H715        H  0.59428115  0.37624785  0.13819352     0.17300
O716        O  0.61318716  0.30430357  0.17288121    -0.59600
H717        H  0.46939209  0.28751938  0.17356249     0.17400
O718        O  0.45090511  0.35858765  0.13568969    -0.59700
H719        H  0.44039881  0.37586702  0.15954180     0.44400
H720        H  0.62395382  0.29121380  0.14661689     0.44300
C721        C  0.51304527  0.73076484  0.16811055    -0.04800
C722        C  0.54366630  0.69850865  0.16974839    -0.32200
C723        C  0.54005977  0.66235829  0.14479167     0.37100
C724        C  0.50640731  0.65879792  0.11632098    -0.05100
C725        C  0.47895418  0.69343362  0.11099986    -0.32100
C726        C  0.48190849  0.72913309  0.13690838     0.37000
H727        H  0.56783463  0.69929418  0.19377938     0.17300
O728        O  0.56935211  0.63064192  0.14872502    -0.59600
H729        H  0.45359660  0.69182024  0.08827210     0.17400
O730        O  0.45130048  0.75972312  0.13478878    -0.59700
H731        H  0.46185369  0.78000098  0.11348925     0.44400
H732        H  0.55912572  0.61320744  0.17253578     0.44300
C733        C  0.50797903  0.64010974  0.85774011    -0.04800
C734        C  0.55177501  0.64679452  0.85506194    -0.32200
C735        C  0.56834325  0.68589159  0.84278995     0.37100
C736        C  0.54115451  0.71936114  0.83085642    -0.05100
C737        C  0.49712697  0.71284988  0.83376727    -0.32100
C738        C  0.48054480  0.67385789  0.84761891     0.37000
H739        H  0.57343804  0.62215609  0.86471021     0.17300
O740        O  0.61160009  0.69061011  0.84148031    -0.59600
H741        H  0.47556080  0.73743656  0.82389558     0.17400
O742        O  0.43745399  0.66910291  0.85132253    -0.59700
H743        H  0.42897997  0.65184436  0.82675716     0.44400
H744        H  0.61838285  0.71090989  0.86420137     0.44300
C745        C  0.64181459  0.47553797  0.85604330    -0.04800
C746        C  0.65315256  0.43297001  0.85993813    -0.32200
C747        C  0.69233138  0.41836618  0.84515992     0.37100
C748        C  0.72085535  0.44621710  0.82518236    -0.05100
C749        C  0.71010225  0.48917244  0.82235802    -0.32100
C750        C  0.67117045  0.50397613  0.83823715     0.37000
H751        H  0.63216007  0.41122680  0.87611589     0.17300
O752        O  0.70218610  0.37646532  0.84961955    -0.59600
H753        H  0.73125160  0.51102434  0.80660805     0.17400
O754        O  0.66263318  0.54640306  0.83731490    -0.59700
H755        H  0.64123935  0.55000235  0.81494316     0.44400
H756        H  0.72033441  0.37508612  0.87487662     0.44300
C757        C  0.48729799  0.34655234  0.87573177    -0.04800
C758        C  0.46939561  0.31255402  0.89851725    -0.32200
C759        C  0.45774488  0.27491660  0.87875559     0.37100
C760        C  0.46430683  0.27027000  0.83564426    -0.05100
C761        C  0.48461854  0.30293049  0.81314079    -0.32100
C762        C  0.49548443  0.34114221  0.83273761     0.37000
H763        H  0.46234227  0.31579644  0.93165047     0.17300
O764        O  0.43618609  0.24460596  0.90096647    -0.59600
H765        H  0.48891680  0.30002300  0.77949424     0.17400
O766        O  0.51355675  0.37292777  0.80960250    -0.59700
H767        H  0.48962348  0.38669367  0.79495821     0.44400
H768        H  0.45839204  0.22798033  0.91530298     0.44300
C769        C  0.35329014  0.47851158  0.86564563    -0.04800
C770        C  0.34494566  0.51069415  0.83688899    -0.32200
C771        C  0.30708119  0.51083253  0.81406252     0.37100
C772        C  0.27647098  0.47878822  0.82017624    -0.05100
C773        C  0.28397258  0.44778812  0.85043441    -0.32100
C774        C  0.32192150  0.44744727  0.87309405     0.37000
H775        H  0.36798954  0.53557378  0.83178838     0.17300
O776        O  0.30159121  0.54053667  0.78331292    -0.59600
H777        H  0.26202793  0.42166552  0.85387781     0.17400
O778        O  0.32942503  0.41485213  0.90032704    -0.59700
H779        H  0.31392278  0.42239462  0.92644198     0.44400
H780        H  0.31888551  0.53055874  0.75914519     0.44300
C781        C  0.28159486  0.54948637  0.15893085    -0.04800
C782        C  0.31402049  0.57873971  0.14945753    -0.32200
C783        C  0.35403069  0.56560175  0.13554763     0.37100
C784        C  0.36216380  0.52258714  0.12885626    -0.05100
C785        C  0.32926451  0.49332667  0.13597509    -0.32100
C786        C  0.28948818  0.50634037  0.15143199     0.37000
H787        H  0.30875918  0.61220693  0.15414037     0.17300
O788        O  0.38406828  0.59538057  0.12568727    -0.59600
H789        H  0.33429664  0.46024930  0.12882393     0.17400
O790        O  0.25948969  0.47644855  0.16081312    -0.59700
H791        H  0.24566697  0.46981824  0.13372187     0.44400
H792        H  0.39990535  0.60024577  0.15204156     0.44300
C793        C  0.65491351  0.49578373  0.11473148    -0.04800
C794        C  0.68874870  0.47435141  0.09450698    -0.32200
C795        C  0.72516632  0.46219895  0.11622813     0.37100
C796        C  0.72868978  0.47125630  0.15896506    -0.05100
C797        C  0.69650381  0.49524823  0.17874281    -0.32100
C798        C  0.65970901  0.50725902  0.15704906     0.37000
H799        H  0.68628294  0.46501332  0.06189951     0.17300
O800        O  0.75513109  0.43776043  0.09646593    -0.59600
H801        H  0.69848446  0.50187434  0.21204827     0.17400
O802        O  0.62875100  0.52983449  0.17749819    -0.59700
H803        H  0.61207247  0.50863176  0.19341973     0.44400
H804        H  0.77239010  0.45775696  0.07962525     0.44300
loop_ 
_geom_bond_atom_site_label_1 
_geom_bond_atom_site_label_2 
_geom_bond_distance 
_geom_bond_site_symmetry_2 
_ccdc_geom_bond_type 
O1          Zr13   2.385       .  S
O1            C3   1.276       .  A
O2          Zr39   2.492       .  S
O2            C3   1.300       .  A
C3          C709   1.475       .  S
O4          Zr16   2.406       .  S
O4            C6   1.279       .  A
O5          Zr40   2.481       .  S
O5            C6   1.298       .  A
C6          C745   1.469       .  S
O7          Zr16   2.400   1_554  S
O7            C9   1.280       .  A
O8          Zr39   2.488       .  S
O8            C9   1.300       .  A
C9          C793   1.493       .  S
O10         Zr13   2.389   1_556  S
O10          C12   1.278       .  A
O11         Zr40   2.482       .  S
O11          C12   1.299       .  A
C12         C757   1.486       .  S
Zr13         O14   2.433   1_554  S
Zr13         O15   2.439       .  S
Zr13         O19   2.351       .  S
Zr13         O20   2.351   1_554  S
Zr13         O43   2.353   1_554  S
Zr13         O45   2.359       .  S
O14          H57   0.990   1_556  S
O15          H56   0.990       .  S
O15          H60   0.990       .  S
Zr16         O17   2.440       .  S
Zr16         O18   2.436       .  S
Zr16         O20   2.383       .  S
Zr16         O19   2.373   1_556  S
Zr16         O44   2.344   1_556  S
Zr16         O46   2.343       .  S
O17          H58   0.990       .  S
O17          H61   0.991       .  S
O18          H51   0.991       .  S
O19         Zr39   2.382       .  S
O20         Zr40   2.402       .  S
O20          H47   0.964       .  S
O21         Zr33   2.398       .  S
O21          C23   1.280       .  A
O22         Zr40   2.477       .  S
O22          C23   1.299       .  A
C23         C769   1.478       .  S
O24         Zr36   2.417   1_554  S
O24          C26   1.284       .  A
O25         Zr39   2.464       .  S
O25          C26   1.297       .  A
C26         C724   1.478       .  S
O27         Zr36   2.415       .  S
O27          C29   1.278       .  A
O28         Zr40   2.492       .  S
O28          C29   1.300       .  A
C29         C733   1.484       .  S
O30         Zr33   2.385   1_554  S
O30          C32   1.277       .  A
O31         Zr39   2.486       .  S
O31          C32   1.300       .  A
C32         C784   1.473       .  S
Zr33         O34   2.438       .  S
Zr33         O35   2.434   1_556  S
Zr33         O41   2.358       .  S
Zr33         O42   2.367   1_556  S
Zr33         O45   2.361   1_556  S
Zr33         O43   2.345       .  S
O34          H54   0.990   1_556  S
O34          H59   0.990   1_556  S
O35          H55   0.990       .  S
Zr36         O37   2.435       .  S
Zr36         O38   2.438       .  S
Zr36         O42   2.360   1_556  S
Zr36         O41   2.366       .  S
Zr36         O46   2.377       .  S
Zr36         O44   2.379   1_556  S
O37          H53   0.990       .  S
O38          H52   0.989       .  S
O38          H62   0.990       .  S
Zr39         O42   2.400       .  S
Zr39         O44   2.406       .  S
Zr39         O45   2.393       .  S
Zr40         O41   2.402       .  S
Zr40         O43   2.388       .  S
Zr40         O46   2.396       .  S
O41          H49   0.965       .  S
O44          H48   0.963       .  S
O45          H50   0.965       .  S
N63          C67   1.373       .  A
N63          C64   1.372       .  A
N63         C700   1.469       .  S
C64         C685   1.480       .  S
C64          C65   1.378       .  A
C65          C66   1.353       .  A
C65          H68   1.083       .  S
C66          C67   1.384       .  A
C66          H69   1.082       .  S
C67         C781   1.493       .  S
N70          C74   1.366       .  A
N70          C71   1.375       .  A
N70         C673   1.468       .  S
C71         C661   1.500       .  S
C71          C72   1.387       .  A
C72          C73   1.357       .  A
C72          H75   1.082       .  S
C73          C74   1.375       .  A
C73          H76   1.083       .  S
C74         C796   1.479       .  S
N77          C81   1.374       .  A
N77          C78   1.370       .  A
N77         C649   1.466       .  S
C78         C772   1.471       .  S
C78          C79   1.377       .  A
C79          C80   1.353       .  A
C79          H82   1.083       .  S
C80          C81   1.381       .  A
C80          H83   1.083       .  S
C81         C637   1.482       .  S
N84          C88   1.365       .  A
N84          C85   1.365       .  A
N84         C625   1.457       .  S
C85         C748   1.483       .  S
C85          C86   1.382       .  A
C86          C87   1.359       .  A
C86          H89   1.082       .  S
C87          C88   1.378       .  A
C87          H90   1.083       .  S
C88         C613   1.479       .  S
N91          C96   1.364       .  A
N91          C95   1.364   1_455  A
N91         H123   1.036       .  S
N92          C99   1.362   1_556  A
N92         C100   1.361       .  A
N93          C98   1.363       .  A
N93          C97   1.362   1_455  A
N93         H124   1.037       .  S
N94         C101   1.363   1_556  A
N94         C102   1.365       .  A
C95         C103   1.386       .  A
C95         C111   1.434       .  A
C96         C112   1.438       .  A
C96         C104   1.389       .  A
C97         C105   1.388       .  A
C97         C114   1.431       .  A
C98         C113   1.434       .  A
C98         C106   1.387       .  A
C99         C111   1.431       .  A
C99         C107   1.386       .  A
C100        C114   1.431       .  A
C100        C108   1.387       .  A
C101        C109   1.386       .  A
C101        C112   1.435       .  A
C102        C110   1.386       .  A
C102        C113   1.435       .  A
C103        C104   1.381   1_655  A
C103        H115   1.082       .  S
C104        H116   1.082       .  S
C105        C106   1.379   1_655  A
C105        H117   1.082       .  S
C106        H118   1.082       .  S
C107        C108   1.376   1_554  A
C107        H119   1.082       .  S
C108        H120   1.082       .  S
C109        C110   1.378   1_554  A
C109        H121   1.082       .  S
C110        H122   1.082       .  S
C111        C676   1.524       .  S
C112        C697   1.530       .  S
C113        C652   1.532       .  S
C114        C628   1.515       .  S
O125       Zr137   2.390   1_455  S
O125        C127   1.279       .  A
O126       Zr163   2.493       .  S
O126        C127   1.301       .  A
C127        C688   1.494       .  S
O128       Zr140   2.419       .  S
O128        C130   1.274       .  A
O129       Zr164   2.470       .  S
O129        C130   1.291       .  A
C130        C577   1.480       .  S
O131       Zr140   2.432   1_455  S
O131        C133   1.286       .  A
O132       Zr163   2.469       .  S
O132        C133   1.297       .  A
C133        C601   1.491       .  S
O134       Zr137   2.380       .  S
O134        C136   1.275       .  A
O135       Zr164   2.498       .  S
O135        C136   1.301       .  A
C136        C664   1.478       .  S
Zr137       O138   2.436       .  S
Zr137       O139   2.436       .  S
Zr137       O143   2.367   1_655  S
Zr137       O144   2.363       .  S
Zr137       O167   2.367       .  S
Zr137       O169   2.358   1_655  S
O138        H181   0.991       .  S
O139        H180   0.990       .  S
O139        H184   0.991       .  S
Zr140       O141   2.438       .  S
Zr140       O142   2.437       .  S
Zr140       O144   2.377       .  S
Zr140       O143   2.364   1_655  S
Zr140       O168   2.376   1_655  S
Zr140       O170   2.375       .  S
O141        H182   0.990       .  S
O141        H185   0.990       .  S
O142        H175   0.990       .  S
O143       Zr163   2.396       .  S
O144       Zr164   2.416       .  S
O144        H171   0.967       .  S
O145       Zr157   2.420   1_655  S
O145        C147   1.283       .  A
O146       Zr164   2.473       .  S
O146        C147   1.297       .  A
C147        C568   1.489       .  S
O148       Zr160   2.389   1_455  S
O148        C150   1.277       .  A
O149       Zr163   2.487       .  S
O149        C150   1.300       .  A
C150        C640   1.473       .  S
O151       Zr160   2.385       .  S
O151        C153   1.277       .  A
O152       Zr164   2.491       .  S
O152        C153   1.300       .  A
C153        C616   1.494       .  S
O154       Zr157   2.412       .  S
O154        C156   1.272       .  A
O155       Zr163   2.465       .  S
O155        C156   1.289       .  A
C156        C592   1.482       .  S
Zr157       O158   2.440       .  S
Zr157       O159   2.435       .  S
Zr157       O165   2.368   1_455  S
Zr157       O166   2.367       .  S
Zr157       O169   2.375       .  S
Zr157       O167   2.366   1_455  S
O158        H178   0.990       .  S
O158        H183   0.990       .  S
O159        H179   0.989       .  S
Zr160       O161   2.434   1_655  S
Zr160       O162   2.435       .  S
Zr160       O166   2.353   1_655  S
Zr160       O165   2.367       .  S
Zr160       O170   2.341       .  S
Zr160       O168   2.357   1_655  S
O161        H177   0.990       .  S
O162        H176   0.991       .  S
O162        H186   0.990   1_655  S
Zr163       O166   2.395       .  S
Zr163       O168   2.406       .  S
Zr163       O169   2.412       .  S
Zr164       O165   2.400       .  S
Zr164       O167   2.392       .  S
Zr164       O170   2.406       .  S
O165        H173   0.964       .  S
O168        H172   0.966       .  S
O169        H174   0.965       .  S
N187        C191   1.371       .  A
N187        C188   1.372       .  A
N187        C553   1.466       .  S
C188        C544   1.473       .  S
C188        C189   1.380       .  A
C189        C190   1.352       .  A
C189        H192   1.083       .  S
C190        C191   1.380       .  A
C190        H193   1.083       .  S
C191        C721   1.474       .  S
N194        C198   1.380       .  A
N194        C195   1.376       .  A
N194        C532   1.477       .  S
C195        C520   1.475       .  S
C195        C196   1.377       .  A
C196        C197   1.350       .  A
C196        H199   1.083       .  S
C197        C198   1.381       .  A
C197        H200   1.083       .  S
C198        C712   1.484       .  S
N201        C205   1.368       .  A
N201        C202   1.365       .  A
N201        C508   1.468       .  S
C202        C760   1.472       .  S
C202        C203   1.379       .  A
C203        C204   1.357       .  A
C203        H206   1.083       .  S
C204        C205   1.382       .  A
C204        H207   1.082       .  S
C205        C496   1.478       .  S
N208        C212   1.372       .  A
N208        C209   1.378       .  A
N208        C481   1.471       .  S
C209        C736   1.497       .  S
C209        C210   1.385       .  A
C210        C211   1.354       .  A
C210        H213   1.082       .  S
C211        C212   1.376       .  A
C211        H214   1.083       .  S
C212        C469   1.478       .  S
N215        C220   1.369       .  A
N215        C219   1.365   1_545  A
N215        H247   1.036       .  S
N216        C223   1.364       .  A
N216        C224   1.368   1_554  A
N217        C222   1.362   1_565  A
N217        C221   1.367       .  A
N217        H248   1.037       .  S
N218        C225   1.366       .  A
N218        C226   1.364   1_554  A
C219        C227   1.388       .  A
C219        C235   1.442       .  A
C220        C236   1.443       .  A
C220        C228   1.387       .  A
C221        C229   1.388       .  A
C221        C238   1.437       .  A
C222        C237   1.434       .  A
C222        C230   1.387       .  A
C223        C235   1.441       .  A
C223        C231   1.389       .  A
C224        C238   1.438       .  A
C224        C232   1.384       .  A
C225        C233   1.385       .  A
C225        C236   1.438       .  A
C226        C234   1.388       .  A
C226        C237   1.438       .  A
C227        C228   1.382   1_565  A
C227        H239   1.082       .  S
C228        H240   1.082       .  S
C229        C230   1.380   1_565  A
C229        H241   1.082       .  S
C230        H242   1.082       .  S
C231        C232   1.379   1_554  A
C231        H243   1.082       .  S
C232        H244   1.082       .  S
C233        C234   1.380   1_554  A
C233        H245   1.082       .  S
C234        H246   1.082       .  S
C235        C556   1.532       .  S
C236        C529   1.543       .  S
C237        C505   1.525       .  S
C238        C484   1.542       .  S
N249        C253   1.376       .  A
N249        C250   1.372       .  A
N249        C460   1.467       .  S
C250        C604   1.483       .  S
C250        C251   1.378       .  A
C251        C252   1.357       .  A
C251        H254   1.083       .  S
C252        C253   1.383       .  A
C252        H255   1.083       .  S
C253        C445   1.494       .  S
N256        C260   1.372       .  A
N256        C257   1.377       .  A
N256        C436   1.470       .  S
C257        C421   1.497       .  S
C257        C258   1.385       .  A
C258        C259   1.356       .  A
C258        H261   1.082       .  S
C259        C260   1.377       .  A
C259        H262   1.083       .  S
C260        C565   1.480       .  S
N263        C267   1.373       .  A
N263        C264   1.370       .  A
N263        C409   1.460       .  S
C264        C397   1.483       .  S
C264        C265   1.377       .  A
C265        C266   1.359       .  A
C265        H268   1.083       .  S
C266        C267   1.383       .  A
C266        H269   1.083       .  S
C267        C589   1.491       .  S
N270        C274   1.368       .  A
N270        C271   1.371       .  A
N270        C385   1.462       .  S
C271        C580   1.485       .  S
C271        C272   1.383       .  A
C272        C273   1.359       .  A
C272        H275   1.083       .  S
C273        C274   1.378       .  A
C273        H276   1.083       .  S
C274        C376   1.477       .  S
N277        C282   1.362   1_455  A
N277        C281   1.364       .  A
N277        H309   1.039       .  S
N278        C285   1.362   1_545  A
N278        C286   1.361       .  A
N279        C284   1.365       .  A
N279        C283   1.361   1_655  A
N279        H310   1.037       .  S
N280        C287   1.361       .  A
N280        C288   1.363   1_565  A
C281        C289   1.388       .  A
C281        C297   1.433       .  A
C282        C298   1.432       .  A
C282        C290   1.387       .  A
C283        C291   1.387       .  A
C283        C300   1.433       .  A
C284        C299   1.436       .  A
C284        C292   1.388       .  A
C285        C297   1.431       .  A
C285        C293   1.386       .  A
C286        C300   1.432       .  A
C286        C294   1.388       .  A
C287        C295   1.388       .  A
C287        C298   1.432       .  A
C288        C296   1.385       .  A
C288        C299   1.431       .  A
C289        C290   1.381   1_455  A
C289        H301   1.082       .  S
C290        H302   1.082       .  S
C291        C292   1.380   1_455  A
C291        H303   1.082       .  S
C292        H304   1.082       .  S
C293        C294   1.378   1_565  A
C293        H305   1.082       .  S
C294        H306   1.082       .  S
C295        C296   1.377   1_565  A
C295        H307   1.082       .  S
C296        H308   1.082       .  S
C297        C457   1.525       .  S
C298        C388   1.523       .  S
C299        C433   1.532       .  S
C300        C412   1.519       .  S
O311       Zr323   2.411       .  S
O311        C313   1.273       .  A
O312       Zr349   2.480       .  S
O312        C313   1.293       .  A
C313        C448   1.486       .  S
O314       Zr326   2.381       .  S
O314        C316   1.276       .  A
O315       Zr350   2.494       .  S
O315        C316   1.301       .  A
C316        C517   1.485       .  S
O317       Zr326   2.380   1_565  S
O317        C319   1.274       .  A
O318       Zr349   2.485       .  S
O318        C319   1.299       .  A
C319        C541   1.467       .  S
O320       Zr323   2.429   1_545  S
O320        C322   1.285       .  A
O321       Zr350   2.485       .  S
O321        C322   1.300       .  A
C322        C400   1.494       .  S
Zr323       O324   2.439       .  S
Zr323       O325   2.439       .  S
Zr323       O329   2.374       .  S
Zr323       O330   2.381   1_565  S
Zr323       O353   2.355   1_565  S
Zr323       O355   2.380       .  S
O324        H367   0.990       .  S
O325        H366   0.990       .  S
O325        H370   0.990   1_565  S
Zr326       O327   2.440   1_545  S
Zr326       O328   2.438   1_545  S
Zr326       O330   2.354       .  S
Zr326       O329   2.340   1_545  S
Zr326       O354   2.371   1_545  S
Zr326       O356   2.356       .  S
O327        H368   0.990   1_565  S
O327        H371   0.990       .  S
O328        H361   0.990   1_565  S
O329       Zr349   2.397       .  S
O330       Zr350   2.395       .  S
O330        H357   0.967       .  S
O331       Zr343   2.377       .  S
O331        C333   1.276       .  A
O332       Zr350   2.477       .  S
O332        C333   1.297       .  A
C333        C493   1.463       .  S
O334       Zr346   2.424   1_565  S
O334        C336   1.285       .  A
O335       Zr349   2.465       .  S
O335        C336   1.297       .  A
C336        C373   1.489       .  S
O337       Zr346   2.427       .  S
O337        C339   1.276       .  A
O338       Zr350   2.471       .  S
O338        C339   1.293       .  A
C339        C424   1.490       .  S
O340       Zr343   2.382   1_565  S
O340        C342   1.276       .  A
O341       Zr349   2.501       .  S
O341        C342   1.302       .  A
C342        C472   1.490       .  S
Zr343       O344   2.438       .  S
Zr343       O345   2.433   1_545  S
Zr343       O351   2.349       .  S
Zr343       O352   2.356   1_545  S
Zr343       O355   2.360   1_545  S
Zr343       O353   2.371       .  S
O344        H364   0.990       .  S
O344        H369   0.990       .  S
O345        H365   0.990   1_565  S
Zr346       O347   2.435       .  S
Zr346       O348   2.438       .  S
Zr346       O352   2.367   1_545  S
Zr346       O351   2.369       .  S
Zr346       O356   2.370       .  S
Zr346       O354   2.369   1_545  S
O347        H363   0.990       .  S
O348        H362   0.990       .  S
O348        H372   0.990       .  S
Zr349       O352   2.393       .  S
Zr349       O354   2.407       .  S
Zr349       O355   2.402       .  S
Zr350       O351   2.417       .  S
Zr350       O353   2.390       .  S
Zr350       O356   2.402       .  S
O351        H359   0.964       .  S
O354        H358   0.966       .  S
O355        H360   0.968       .  S
C373        C374   1.413       .  A
C373        C378   1.407       .  A
C374        C375   1.404       .  A
C374        H379   1.083       .  S
C375        C376   1.403       .  A
C375        O380   1.372       .  S
C376        C377   1.407       .  A
C377        C378   1.402       .  A
C377        H381   1.084       .  S
C378        O382   1.371       .  S
O380        H384   0.992       .  S
O382        H383   0.992       .  S
C385        C386   1.408       .  A
C385        C390   1.417       .  A
C386        C387   1.414       .  A
C386        H391   1.082       .  S
C387        C388   1.416       .  A
C387        O392   1.371       .  S
C388        C389   1.408       .  A
C389        C390   1.411       .  A
C389        H393   1.083       .  S
C390        O394   1.371       .  S
O392        H396   0.991       .  S
O394        H395   0.992       .  S
C397        C398   1.409       .  A
C397        C402   1.404       .  A
C398        C399   1.405       .  A
C398        H403   1.084       .  S
C399        C400   1.407       .  A
C399        O404   1.371       .  S
C400        C401   1.414       .  A
C401        C402   1.407       .  A
C401        H405   1.083       .  S
C402        O406   1.372       .  S
O404        H408   0.992       .  S
O406        H407   0.992       .  S
C409        C410   1.409       .  A
C409        C414   1.414       .  A
C410        C411   1.408       .  A
C410        H415   1.083       .  S
C411        C412   1.411       .  A
C411        O416   1.371       .  S
C412        C413   1.412       .  A
C413        C414   1.417       .  A
C413        H417   1.083       .  S
C414        O418   1.371       .  S
O416        H420   0.992       .  S
O418        H419   0.992       .  S
C421        C422   1.406       .  A
C421        C426   1.418       .  A
C422        C423   1.413       .  A
C422        H427   1.083       .  S
C423        C424   1.414       .  A
C423        O428   1.371       .  S
C424        C425   1.400       .  A
C425        C426   1.402       .  A
C425        H429   1.084       .  S
C426        O430   1.372       .  S
O428        H432   0.991       .  S
O430        H431   0.992       .  S
C433        C434   1.412       .  A
C433        C438   1.415       .  A
C434        C435   1.421       .  A
C434        H439   1.083       .  S
C435        C436   1.414       .  A
C435        O440   1.371       .  S
C436        C437   1.413       .  A
C437        C438   1.418       .  A
C437        H441   1.083       .  S
C438        O442   1.372       .  S
O440        H444   0.992       .  S
O442        H443   0.992       .  S
C445        C446   1.412       .  A
C445        C450   1.408       .  A
C446        C447   1.403       .  A
C446        H451   1.084       .  S
C447        C448   1.405       .  A
C447        O452   1.372       .  S
C448        C449   1.410       .  A
C449        C450   1.408       .  A
C449        H453   1.084       .  S
C450        O454   1.371       .  S
O452        H456   0.992       .  S
O454        H455   0.991       .  S
C457        C458   1.406       .  A
C457        C462   1.416       .  A
C458        C459   1.412       .  A
C458        H463   1.083       .  S
C459        C460   1.417       .  A
C459        O464   1.371       .  S
C460        C461   1.411       .  A
C461        C462   1.420       .  A
C461        H465   1.082       .  S
C462        O466   1.372       .  S
O464        H468   0.992       .  S
O466        H467   0.992       .  S
C469        C470   1.411       .  A
C469        C474   1.402       .  A
C470        C471   1.408       .  A
C470        H475   1.084       .  S
C471        C472   1.406       .  A
C471        O476   1.371       .  S
C472        C473   1.414       .  A
C473        C474   1.401       .  A
C473        H477   1.084       .  S
C474        O478   1.372       .  S
O476        H480   0.991       .  S
O478        H479   0.992       .  S
C481        C482   1.412       .  A
C481        C486   1.414       .  A
C482        C483   1.420       .  A
C482        H487   1.083       .  S
C483        C484   1.416       .  A
C483        O488   1.372       .  S
C484        C485   1.416       .  A
C485        C486   1.424       .  A
C485        H489   1.083       .  S
C486        O490   1.371       .  S
O488        H492   0.992       .  S
O490        H491   0.992       .  S
C493        C494   1.401       .  A
C493        C498   1.408       .  A
C494        C495   1.399       .  A
C494        H499   1.084       .  S
C495        C496   1.409       .  A
C495        O500   1.373       .  S
C496        C497   1.405       .  A
C497        C498   1.404       .  A
C497        H501   1.084       .  S
C498        O502   1.372       .  S
O500        H504   0.992       .  S
O502        H503   0.992       .  S
C505        C506   1.406       .  A
C505        C510   1.416       .  A
C506        C507   1.412       .  A
C506        H511   1.083       .  S
C507        C508   1.420       .  A
C507        O512   1.371       .  S
C508        C509   1.411       .  A
C509        C510   1.418       .  A
C509        H513   1.082       .  S
C510        O514   1.371       .  S
O512        H516   0.992       .  S
O514        H515   0.992       .  S
C517        C518   1.413       .  A
C517        C522   1.403       .  A
C518        C519   1.401       .  A
C518        H523   1.084       .  S
C519        C520   1.403       .  A
C519        O524   1.372       .  S
C520        C521   1.413       .  A
C521        C522   1.406       .  A
C521        H525   1.084       .  S
C522        O526   1.371       .  S
O524        H528   0.992       .  S
O526        H527   0.992       .  S
C529        C530   1.411       .  A
C529        C534   1.419       .  A
C530        C531   1.422       .  A
C530        H535   1.083       .  S
C531        C532   1.420       .  A
C531        O536   1.371       .  S
C532        C533   1.414       .  A
C533        C534   1.424       .  A
C533        H537   1.082       .  S
C534        O538   1.370       .  S
O536        H540   0.992       .  S
O538        H539   0.992       .  S
C541        C542   1.399       .  A
C541        C546   1.412       .  A
C542        C543   1.398       .  A
C542        H547   1.084       .  S
C543        C544   1.411       .  A
C543        O548   1.372       .  S
C544        C545   1.403       .  A
C545        C546   1.405       .  A
C545        H549   1.084       .  S
C546        O550   1.372       .  S
O548        H552   0.992       .  S
O550        H551   0.992       .  S
C553        C554   1.410       .  A
C553        C558   1.415       .  A
C554        C555   1.417       .  A
C554        H559   1.083       .  S
C555        C556   1.417       .  A
C555        O560   1.371       .  S
C556        C557   1.412       .  A
C557        C558   1.415       .  A
C557        H561   1.083       .  S
C558        O562   1.370       .  S
O560        H564   0.991       .  S
O562        H563   0.992       .  S
C565        C566   1.410       .  A
C565        C570   1.403       .  A
C566        C567   1.405       .  A
C566        H571   1.084       .  S
C567        C568   1.406       .  A
C567        O572   1.371       .  S
C568        C569   1.412       .  A
C569        C570   1.404       .  A
C569        H573   1.084       .  S
C570        O574   1.372       .  S
O572        H576   0.992       .  S
O574        H575   0.992       .  S
C577        C578   1.399       .  A
C577        C582   1.413       .  A
C578        C579   1.400       .  A
C578        H583   1.084       .  S
C579        C580   1.412       .  A
C579        O584   1.371       .  S
C580        C581   1.405       .  A
C581        C582   1.409       .  A
C581        H585   1.084       .  S
C582        O586   1.371       .  S
O584        H588   0.992       .  S
O586        H587   0.992       .  S
C589        C590   1.406       .  A
C589        C594   1.414       .  A
C590        C591   1.409       .  A
C590        H595   1.083       .  S
C591        C592   1.413       .  A
C591        O596   1.372       .  S
C592        C593   1.400       .  A
C593        C594   1.402       .  A
C593        H597   1.084       .  S
C594        O598   1.372       .  S
O596        H600   0.992       .  S
O598        H599   0.992       .  S
C601        C602   1.413       .  A
C601        C606   1.406       .  A
C602        C603   1.404       .  A
C602        H607   1.083       .  S
C603        C604   1.402       .  A
C603        O608   1.371       .  S
C604        C605   1.412       .  A
C605        C606   1.405       .  A
C605        H609   1.084       .  S
C606        O610   1.372       .  S
O608        H612   0.992       .  S
O610        H611   0.992       .  S
C613        C614   1.414       .  A
C613        C618   1.395       .  A
C614        C615   1.406       .  A
C614        H619   1.084       .  S
C615        C616   1.405       .  A
C615        O620   1.371       .  S
C616        C617   1.419       .  A
C617        C618   1.396       .  A
C617        H621   1.083       .  S
C618        O622   1.371       .  S
O620        H624   0.992       .  S
O622        H623   0.992       .  S
C625        C626   1.410       .  A
C625        C630   1.409       .  A
C626        C627   1.409       .  A
C626        H631   1.083       .  S
C627        C628   1.411       .  A
C627        O632   1.372       .  S
C628        C629   1.411       .  A
C629        C630   1.416       .  A
C629        H633   1.083       .  S
C630        O634   1.369       .  S
O632        H636   0.992       .  S
O634        H635   0.992       .  S
C637        C638   1.406       .  A
C637        C642   1.412       .  A
C638        C639   1.412       .  A
C638        H643   1.084       .  S
C639        C640   1.411       .  A
C639        O644   1.371       .  S
C640        C641   1.400       .  A
C641        C642   1.397       .  A
C641        H645   1.084       .  S
C642        O646   1.372       .  S
O644        H648   0.992       .  S
O646        H647   0.991       .  S
C649        C650   1.409       .  A
C649        C654   1.415       .  A
C650        C651   1.414       .  A
C650        H655   1.083       .  S
C651        C652   1.416       .  A
C651        O656   1.371       .  S
C652        C653   1.414       .  A
C653        C654   1.419       .  A
C653        H657   1.083       .  S
C654        O658   1.370       .  S
O656        H660   0.992       .  S
O658        H659   0.992       .  S
C661        C662   1.415       .  A
C661        C666   1.410       .  A
C662        C663   1.402       .  A
C662        H667   1.083       .  S
C663        C664   1.402       .  A
C663        O668   1.372       .  S
C664        C665   1.410       .  A
C665        C666   1.407       .  A
C665        H669   1.084       .  S
C666        O670   1.371       .  S
O668        H672   0.992       .  S
O670        H671   0.992       .  S
C673        C674   1.410       .  A
C673        C678   1.420       .  A
C674        C675   1.418       .  A
C674        H679   1.083       .  S
C675        C676   1.414       .  A
C675        O680   1.370       .  S
C676        C677   1.407       .  A
C677        C678   1.414       .  A
C677        H681   1.083       .  S
C678        O682   1.371       .  S
O680        H684   0.992       .  S
O682        H683   0.992       .  S
C685        C686   1.414       .  A
C685        C690   1.398       .  A
C686        C687   1.407       .  A
C686        H691   1.084       .  S
C687        C688   1.405       .  A
C687        O692   1.371       .  S
C688        C689   1.417       .  A
C689        C690   1.400       .  A
C689        H693   1.083       .  S
C690        O694   1.371       .  S
O692        H696   0.992       .  S
O694        H695   0.991       .  S
C697        C698   1.412       .  A
C697        C702   1.415       .  A
C698        C699   1.420       .  A
C698        H703   1.083       .  S
C699        C700   1.413       .  A
C699        O704   1.371       .  S
C700        C701   1.413       .  A
C701        C702   1.416       .  A
C701        H705   1.083       .  S
C702        O706   1.372       .  S
O704        H708   0.992       .  S
O706        H707   0.992       .  S
C709        C710   1.401       .  A
C709        C714   1.412       .  A
C710        C711   1.402       .  A
C710        H715   1.084       .  S
C711        C712   1.414       .  A
C711        O716   1.372       .  S
C712        C713   1.404       .  A
C713        C714   1.409       .  A
C713        H717   1.083       .  S
C714        O718   1.371       .  S
O716        H720   0.992       .  S
O718        H719   0.991       .  S
C721        C722   1.408       .  A
C721        C726   1.403       .  A
C722        C723   1.398       .  A
C722        H727   1.084       .  S
C723        C724   1.405       .  A
C723        O728   1.372       .  S
C724        C725   1.410       .  A
C725        C726   1.402       .  A
C725        H729   1.084       .  S
C726        O730   1.371       .  S
O728        H732   0.992       .  S
O730        H731   0.992       .  S
C733        C734   1.399       .  A
C733        C738   1.415       .  A
C734        C735   1.400       .  A
C734        H739   1.084       .  S
C735        C736   1.419       .  A
C735        O740   1.373       .  S
C736        C737   1.406       .  A
C737        C738   1.412       .  A
C737        H741   1.083       .  S
C738        O742   1.372       .  S
O740        H744   0.992       .  S
O742        H743   0.992       .  S
C745        C746   1.402       .  A
C745        C750   1.409       .  A
C746        C747   1.398       .  A
C746        H751   1.084       .  S
C747        C748   1.410       .  A
C747        O752   1.372       .  S
C748        C749   1.406       .  A
C749        C750   1.406       .  A
C749        H753   1.083       .  S
C750        O754   1.372       .  S
O752        H756   0.992       .  S
O754        H755   0.992       .  S
C757        C758   1.416       .  A
C757        C762   1.403       .  A
C758        C759   1.397       .  A
C758        H763   1.083       .  S
C759        C760   1.396       .  A
C759        O764   1.372       .  S
C760        C761   1.412       .  A
C761        C762   1.404       .  A
C761        H765   1.084       .  S
C762        O766   1.371       .  S
O764        H768   0.991       .  S
O766        H767   0.992       .  S
C769        C770   1.399       .  A
C769        C774   1.414       .  A
C770        C771   1.402       .  A
C770        H775   1.084       .  S
C771        C772   1.414       .  A
C771        O776   1.372       .  S
C772        C773   1.400       .  A
C773        C774   1.402       .  A
C773        H777   1.084       .  S
C774        O778   1.372       .  S
O776        H780   0.992       .  S
O778        H779   0.992       .  S
C781        C782   1.411       .  A
C781        C786   1.409       .  A
C782        C783   1.398       .  A
C782        H787   1.083       .  S
C783        C784   1.403       .  A
C783        O788   1.372       .  S
C784        C785   1.409       .  A
C785        C786   1.407       .  A
C785        H789   1.084       .  S
C786        O790   1.370       .  S
O788        H792   0.992       .  S
O790        H791   0.992       .  S
C793        C794   1.416       .  A
C793        C798   1.405       .  A
C794        C795   1.400       .  A
C794        H799   1.083       .  S
C795        C796   1.397       .  A
C795        O800   1.372       .  S
C796        C797   1.413       .  A
C797        C798   1.408       .  A
C797        H801   1.084       .  S
C798        O802   1.372       .  S
O800        H804   0.992       .  S
O802        H803   0.992       .  S
