geometry optimzed in LAMMPS
_audit_creation_date              2020-11-30 
_audit_creation_method            'lammps2cif' 
_symmetry_space_group_name_H-M    'P1' 
_symmetry_Int_Tables_number       1 
_symmetry_cell_setting            triclinic 
loop_ 
_symmetry_equiv_pos_as_xyz 
  x,y,z 
_cell_length_a                    31.762270346253068 
_cell_length_b                    37.621447363160165 
_cell_length_c                    83.75446512393576 
_cell_angle_alpha                 88.90481182418277 
_cell_angle_beta                  90.71939066837119 
_cell_angle_gamma                 89.88748343304307 
loop_ 
_atom_site_label 
_atom_site_type_symbol 
_atom_site_fract_x 
_atom_site_fract_y 
_atom_site_fract_z 
_atom_site_charge 
O1          O  0.35411793  0.04144858  0.29809900    -0.80660
O2          O  0.36101758  0.08796940  0.35548549    -0.80690
O3          O  0.37803389  0.09644624  0.31529549    -0.80690
O4          O  0.35948970  0.49741081  0.33398176    -0.80640
O5          O  0.34819483  0.13305453  0.33153089    -0.80760
O6          O  0.32923085  0.48819613  0.31041837    -0.80680
O7          O  0.34500667  0.03255565  0.36211018    -0.80660
O8          O  0.33968496  0.08958227  0.28529013    -0.80700
C9          C  0.35583403  0.05858388  0.28498900     1.09030
C10         C  0.36696876  0.06050856  0.36391267     1.08910
C11         C  0.37894023  0.12479565  0.32292611     1.09050
C12         C  0.36080201  0.48404155  0.32025883     1.08930
O13         O  0.24022564  0.52377970  0.31610939    -0.80660
O14         O  0.25917349  0.11748892  0.33299034    -0.80740
O15         O  0.26164317  0.07888770  0.29959303    -0.80680
O16         O  0.25518015  0.02664139  0.35435483    -0.80660
O17         O  0.27297101  0.08084733  0.36066172    -0.80710
O18         O  0.27320651  0.03351168  0.28537358    -0.80670
O19         O  0.27162524  0.48304986  0.33028260    -0.80630
O20         O  0.29307640  0.13193768  0.31108951    -0.80700
Co21       Co  0.29674701  0.03591481  0.30803303     1.51530
Co22       Co  0.30986715  0.10152996  0.34398525     1.51690
Co23       Co  0.32095940  0.08364375  0.30812589     1.51570
Co24       Co  0.30846064  0.01316343  0.34415740     1.51470
O25         O  0.31094777  0.05814958  0.32959064    -1.42600
C26         C  0.23956369  0.49352244  0.32238719     1.08950
C27         C  0.26100346  0.13504543  0.32014004     1.09040
C28         C  0.25811064  0.06519259  0.28604114     1.08980
C29         C  0.24742506  0.05523714  0.36128699     1.08960
O30         O  0.51604018  0.37081058  0.30609712    -0.80660
O31         O  0.15942208  0.30944250  0.29432095    -0.80690
O32         O  0.10227581  0.37846993  0.32968803    -0.80690
O33         O  0.01204470  0.30683503  0.28720554    -0.80640
O34         O  0.10629834  0.36494493  0.30444626    -0.80760
O35         O  0.45316055  0.32919908  0.29638557    -0.80680
O36         O  0.09488830  0.30833412  0.28694669    -0.80660
O37         O  0.01717277  0.38095016  0.33133518    -0.80700
C38         C  0.50625175  0.39079265  0.31736712     1.09030
C39         C  0.13185271  0.29831884  0.28434027     1.08910
C40         C  0.11415288  0.38601617  0.31561544     1.09050
C41         C  0.47869409  0.32508569  0.28487130     1.08930
O42         O  0.47518824  0.27381090  0.31693360    -0.80660
O43         O  0.15187763  0.32768115  0.33033464    -0.80740
O44         O  0.01582475  0.31385818  0.34793620    -0.80680
O45         O  0.10050312  0.23910507  0.30292623    -0.80660
O46         O  0.13606897  0.26924112  0.31978236    -0.80710
O47         O  0.46751330  0.33123778  0.33043447    -0.80670
O48         O  0.01922294  0.23924963  0.30540271    -0.80630
O49         O  0.10276944  0.31170087  0.34720580    -0.80700
Co50       Co  0.50022926  0.32047348  0.31074031     1.51530
Co51       Co  0.11640586  0.31512944  0.31110906     1.51690
Co52       Co  0.05952068  0.34326429  0.33789438     1.51570
Co53       Co  0.05615501  0.27583137  0.29759633     1.51470
O54         O  0.05758728  0.30762302  0.31922686    -1.42600
C55         C  0.48692000  0.24332835  0.31326050     1.08950
C56         C  0.14065025  0.31956066  0.34449352     1.09040
C57         C  0.47760826  0.32035166  0.34445928     1.08980
C58         C  0.13138089  0.24143200  0.31228155     1.08960
O59         O  0.48586402  0.45880292  0.23039667    -0.80660
O60         O  0.46865575  0.39103861  0.15748829    -0.80690
O61         O  0.46479656  0.35735937  0.20281884    -0.80690
O62         O  0.47552607  0.00445972  0.17679077    -0.80640
O63         O  0.50233888  0.39041536  0.18740475    -0.80760
O64         O  0.51071676  0.98796562  0.19862191    -0.80680
O65         O  0.49359439  0.44169004  0.16562607    -0.80660
O66         O  0.48896655  0.40683375  0.22091148    -0.80700
C67         C  0.99179612  0.42562008  0.23259266     1.09030
C68         C  0.99700139  0.41478767  0.15649750     1.08910
C69         C  0.49930885  0.36217092  0.19552224     1.09050
C70         C  0.00734434  0.00716797  0.18610046     1.08930
O71         O  0.42578260  0.01981581  0.19670538    -0.80660
O72         O  0.41206522  0.36851765  0.18191562    -0.80740
O73         O  0.40367996  0.43096416  0.23028497    -0.80680
O74         O  0.42163426  0.47385008  0.15357751    -0.80660
O75         O  0.39511155  0.42669264  0.16539964    -0.80710
O76         O  0.40672416  0.48618265  0.22180620    -0.80670
O77         O  0.38677326  0.98400564  0.18283334    -0.80630
O78         O  0.37892948  0.38694077  0.20327912    -0.80700
Co79       Co  0.45842011  0.48442934  0.21060419     1.51530
Co80       Co  0.44969023  0.41067027  0.17752061     1.51690
Co81       Co  0.43300510  0.39832140  0.21333180     1.51570
Co82       Co  0.43876993  0.46104498  0.17525502     1.51470
O83         O  0.44261562  0.43942553  0.19753877    -1.42600
C84         C  0.39091114  0.01281463  0.18992308     1.08950
C85         C  0.37979855  0.36801820  0.19087955     1.09040
C86         C  0.39820391  0.46457775  0.23258282     1.08980
C87         C  0.39272955  0.45056987  0.15421343     1.08960
O88         O  0.24594806  0.19472758  0.22822985    -0.80660
O89         O  0.21278069  0.14574952  0.15404412    -0.80690
O90         O  0.21455957  0.10268481  0.19723851    -0.80690
O91         O  0.22394297  0.25556531  0.17821855    -0.80640
O92         O  0.25132819  0.13889458  0.18293427    -0.80760
O93         O  0.26305442  0.23439701  0.19819097    -0.80680
O94         O  0.23866046  0.19544246  0.16318023    -0.80660
O95         O  0.24459550  0.14392707  0.21774725    -0.80700
C96         C  0.24970433  0.16115794  0.22982247     1.09030
C97         C  0.24063565  0.16983579  0.15318551     1.08910
C98         C  0.24842472  0.10926557  0.18997847     1.09050
C99         C  0.25716724  0.25676845  0.18691949     1.08930
O100        O  0.17755062  0.26580449  0.20047110    -0.80660
O101        O  0.16061108  0.11937241  0.17849516    -0.80740
O102        O  0.16474321  0.16655308  0.23084660    -0.80680
O103        O  0.16487408  0.23082947  0.15522953    -0.80660
O104        O  0.14224840  0.17991704  0.16478276    -0.80710
O105        O  0.16277277  0.22184535  0.22290403    -0.80670
O106        O  0.13571701  0.23417397  0.18574422    -0.80630
O107        O  0.13113631  0.13212343  0.20165176    -0.80700
Co108      Co  0.21318088  0.22604236  0.21110210     1.51530
Co109      Co  0.19810436  0.16151380  0.17510325     1.51690
Co110      Co  0.18722931  0.13984046  0.21084364     1.51570
Co111      Co  0.18619640  0.21273870  0.17560119     1.51470
O112        O  0.19481829  0.18501827  0.19649658    -1.42600
C113        C  0.14135081  0.26124405  0.19409818     1.08950
C114        C  0.13098329  0.11566242  0.18852264     1.09040
C115        C  0.16113928  0.19970681  0.23390327     1.08980
C116        C  0.13781360  0.20601820  0.15473871     1.08960
O117        O  0.46466307  0.22682366  0.11077410    -0.80660
O118        O  0.47212273  0.16829833  0.03543969    -0.80690
O119        O  0.46965904  0.11623433  0.08755311    -0.80690
O120        O  0.46223347  0.26513290  0.06630091    -0.80640
O121        O  0.49901443  0.13007070  0.06431098    -0.80760
O122        O  0.49888428  0.22912925  0.08124988    -0.80680
O123        O  0.48628200  0.21586607  0.04758102    -0.80660
O124        O  0.48759085  0.17594134  0.10206416    -0.80700
C125        C  0.49155821  0.20179858  0.11184544     1.09030
C126        C  0.48708285  0.19978537  0.03503434     1.08910
C127        C  0.49997861  0.11359066  0.07764401     1.09050
C128        C  0.49611676  0.25816685  0.07375807     1.08930
O129        O  0.40932136  0.25336600  0.08622819    -0.80660
O130        O  0.41456989  0.10312270  0.06790907    -0.80740
O131        O  0.41418347  0.14346360  0.11193536    -0.80680
O132        O  0.40040085  0.20030518  0.03545489    -0.80660
O133        O  0.38770770  0.15149793  0.04786810    -0.80710
O134        O  0.39097410  0.19394911  0.10157528    -0.80670
O135        O  0.37663169  0.24038207  0.06339604    -0.80630
O136        O  0.37888712  0.13853638  0.08258033    -0.80700
Co137      Co  0.44551932  0.20982076  0.09022399     1.51530
Co138      Co  0.44435200  0.14121179  0.05492748     1.51690
Co139      Co  0.43234022  0.15916682  0.09092111     1.51570
Co140      Co  0.43034640  0.22744106  0.05422766     1.51470
O141        O  0.43749639  0.18433519  0.06954907    -1.42600
C142        C  0.37871477  0.25740086  0.07628839     1.08950
C143        C  0.38125172  0.10974366  0.07539475     1.09040
C144        C  0.38733464  0.16872227  0.11207222     1.08980
C145        C  0.38576178  0.16864773  0.03526614     1.08960
O146        O  0.17055356  0.38960678  0.11378404    -0.80660
O147        O  0.14214372  0.45144817  0.03867935    -0.80690
O148        O  0.15519845  0.00088622  0.09054973    -0.80690
O149        O  0.16761399  0.35348293  0.06941385    -0.80640
O150        O  0.11959497  0.98519871  0.06885809    -0.80760
O151        O  0.13196295  0.38677325  0.08483257    -0.80680
O152        O  0.13665834  0.40119218  0.05044056    -0.80660
O153        O  0.14249205  0.43927655  0.10465232    -0.80700
C154        C  0.14235297  0.41347201  0.11492546     1.09030
C155        C  0.13134464  0.41883908  0.03814398     1.08910
C156        C  0.12265457  0.00309855  0.08147615     1.09050
C157        C  0.13422057  0.35871709  0.07709202     1.08930
O158        O  0.22337069  0.36659749  0.08834452    -0.80660
O159        O  0.20376208  0.01746390  0.06937226    -0.80740
O160        O  0.21450842  0.47371168  0.11380245    -0.80680
O161        O  0.21874385  0.42302426  0.03729469    -0.80660
O162        O  0.22630821  0.47482694  0.04774407    -0.80710
O163        O  0.24106634  0.42610576  0.10300136    -0.80670
O164        O  0.25062736  0.38309959  0.06505989    -0.80630
O165        O  0.24450685  0.98318431  0.08373033    -0.80700
Co166      Co  0.18537497  0.40820067  0.09271695     1.51530
Co167      Co  0.17219801  0.47886391  0.05736377     1.51690
Co168      Co  0.19454458  0.45905045  0.09298035     1.51570
Co169      Co  0.19449259  0.39324680  0.05655078     1.51470
O170        O  0.18762394  0.43526294  0.07168432    -1.42600
C171        C  0.25236183  0.36473564  0.07792326     1.08950
C172        C  0.23908909  0.01221048  0.07630343     1.09040
C173        C  0.24367257  0.45052315  0.11350864     1.08980
C174        C  0.22898192  0.45587291  0.03597450     1.08960
O175        O  0.01684497  0.27704555  0.96762804    -0.80660
O176        O  0.01702029  0.32254786  0.91368907    -0.80690
O177        O  0.00132157  0.36830296  0.95069137    -0.80690
O178        O  0.00860171  0.26622560  0.93363135    -0.80640
O179        O  0.03456693  0.38306801  0.92836112    -0.80760
O180        O  0.04781350  0.23159892  0.94817548    -0.80680
O181        O  0.04241701  0.27272915  0.90432827    -0.80660
O182        O  0.02450780  0.32698620  0.97928651    -0.80700
C183        C  0.01142598  0.29471143  0.97961662     1.09030
C184        C  0.01420174  0.29691979  0.90370449     1.08910
C185        C  0.00366092  0.38628992  0.93779540     1.09050
C186        C  0.01333690  0.23703428  0.94085635     1.08930
O187        O  0.12935975  0.26443141  0.95236995    -0.80660
O188        O  0.12391602  0.36026050  0.93437392    -0.80740
O189        O  0.11085863  0.34670497  0.96918876    -0.80680
O190        O  0.11422797  0.30832593  0.91406708    -0.80660
O191        O  0.08857580  0.35856518  0.90465004    -0.80710
O192        O  0.09868687  0.29752794  0.98108657    -0.80670
O193        O  0.10133071  0.24838087  0.92920842    -0.80630
O194        O  0.08711553  0.39483745  0.94899491    -0.80700
Co195      Co  0.07407996  0.27085665  0.96121353     1.51530
Co196      Co  0.07102009  0.34010295  0.92522937     1.51690
Co197      Co  0.05502279  0.35632685  0.96103867     1.51570
Co198      Co  0.06035988  0.28917480  0.92514717     1.51470
O199        O  0.06451014  0.31418721  0.94621703    -1.42600
C200        C  0.13153502  0.24728259  0.93953264     1.08950
C201        C  0.12132407  0.38847647  0.94198484     1.09040
C202        C  0.11203784  0.32941119  0.98173505     1.08980
C203        C  0.11712691  0.33500070  0.90426465     1.08960
O204        O  0.36671887  0.09462084  0.96677325    -0.80660
O205        O  0.36221789  0.05873738  0.91246965    -0.80690
O206        O  0.38094735  0.01153458  0.94903839    -0.80690
O207        O  0.37386422  0.11133721  0.93229779    -0.80640
O208        O  0.34733122  0.99734976  0.92667864    -0.80760
O209        O  0.33887251  0.14425595  0.94818506    -0.80680
O210        O  0.33474808  0.10852522  0.90310957    -0.80660
O211        O  0.35705312  0.04542468  0.97884881    -0.80700
C212        C  0.36931697  0.07763753  0.97932932     1.09030
C213        C  0.36363181  0.08516021  0.90249920     1.08910
C214        C  0.37926800  0.49465665  0.93608338     1.09050
C215        C  0.37203280  0.13901915  0.94041736     1.08930
O216        O  0.25481490  0.11704716  0.95131352    -0.80660
O217        O  0.25748304  0.01744892  0.93324252    -0.80740
O218        O  0.27275946  0.02488625  0.96828661    -0.80680
O219        O  0.26360020  0.07363392  0.91390274    -0.80660
O220        O  0.28801159  0.02507810  0.90331889    -0.80710
O221        O  0.28256947  0.07554846  0.97933385    -0.80670
O222        O  0.28388392  0.13371427  0.92839422    -0.80630
O223        O  0.29686840  0.98142971  0.94703779    -0.80700
Co224      Co  0.30963542  0.10495798  0.96041859     1.51530
Co225      Co  0.30884415  0.03985619  0.92401111     1.51690
Co226      Co  0.32786065  0.01910922  0.95965540     1.51570
Co227      Co  0.31964664  0.09057826  0.92418985     1.51470
O228        O  0.31631971  0.06343180  0.94521524    -1.42600
C229        C  0.25594310  0.13742331  0.93908611     1.08950
C230        C  0.26147839  0.48821944  0.94053760     1.09040
C231        C  0.27051014  0.04309132  0.98026239     1.08980
C232        C  0.25890733  0.04840056  0.90385082     1.08960
O233        O  0.07495029  0.05345527  0.40678995    -0.80660
O234        O  0.10987175  0.12461563  0.46822825    -0.80690
O235        O  0.12322717  0.14608254  0.43350226    -0.80690
O236        O  0.12809712  0.03287894  0.45430450    -0.80640
O237        O  0.08047817  0.17299367  0.44900144    -0.80760
O238        O  0.10353280  0.02108002  0.43086486    -0.80680
O239        O  0.09738154  0.07283183  0.47845522    -0.80660
O240        O  0.12019832  0.09215159  0.41476846    -0.80700
C241        C  0.10969272  0.06946185  0.40480899     1.09030
C242        C  0.11310174  0.10370749  0.47971131     1.08910
C243        C  0.11609524  0.17126334  0.44259345     1.09050
C244        C  0.13234680  0.01828077  0.44123544     1.08930
O245        O  0.02444427  0.00650775  0.42174530    -0.80660
O246        O  0.00022932  0.13483908  0.44853318    -0.80740
O247        O  0.03005257  0.10530275  0.40763615    -0.80680
O248        O  0.01377927  0.05828359  0.46311394    -0.80660
O249        O  0.02618501  0.10200552  0.47751361    -0.80710
O250        O  0.99589914  0.07279828  0.42463432    -0.80670
O251        O  0.03660241  0.00733516  0.44775576    -0.80630
O252        O  0.03166484  0.15916906  0.42770489    -0.80700
Co253      Co  0.04966063  0.04858347  0.42915125     1.51530
Co254      Co  0.05417677  0.12898295  0.45883693     1.51690
Co255      Co  0.07649822  0.12334983  0.42230000     1.51570
Co256      Co  0.07115532  0.04725643  0.45896651     1.51470
O257        O  0.07021690  0.08989767  0.44207947    -1.42600
C258        C  0.01839400  0.99356037  0.43551137     1.08950
C259        C  0.00070351  0.15696400  0.43717511     1.09040
C260        C  0.99696995  0.08820582  0.41122810     1.08980
C261        C  0.01112871  0.07133045  0.47631083     1.08960
O262        O  0.35826965  0.29626976  0.40716345    -0.80660
O263        O  0.30572671  0.38436804  0.47207796    -0.80690
O264        O  0.36981862  0.38456098  0.42149244    -0.80690
O265        O  0.37658777  0.28898634  0.44785332    -0.80640
O266        O  0.34609169  0.39985256  0.44466879    -0.80760
O267        O  0.33814758  0.25586816  0.43222820    -0.80680
O268        O  0.36203019  0.35413523  0.46539856    -0.80660
O269        O  0.33930871  0.34800631  0.39703031    -0.80700
C270        C  0.36176942  0.32036113  0.39669615     1.09030
C271        C  0.34406220  0.37731741  0.47462606     1.08910
C272        C  0.37587079  0.39917609  0.43452490     1.09050
C273        C  0.37263522  0.26215190  0.43914899     1.08930
O274        O  0.25142160  0.28117539  0.42877067    -0.80660
O275        O  0.25297679  0.38370392  0.44594806    -0.80740
O276        O  0.25633562  0.36512019  0.40631161    -0.80680
O277        O  0.32840655  0.29539736  0.47545562    -0.80660
O278        O  0.27043484  0.32280377  0.46695662    -0.80710
O279        O  0.27125098  0.30975907  0.40064088    -0.80670
O280        O  0.28650008  0.27018941  0.45072131    -0.80630
O281        O  0.28681706  0.41296935  0.42727392    -0.80700
Co282      Co  0.30493689  0.28906591  0.41843417     1.51530
Co283      Co  0.30505760  0.35974436  0.45265040     1.51690
Co284      Co  0.31323365  0.37465285  0.41462987     1.51570
Co285      Co  0.32553381  0.31387196  0.45433739     1.51470
O286        O  0.31225063  0.33393762  0.43177251    -1.42600
C287        C  0.25303248  0.26764463  0.44243750     1.08950
C288        C  0.25597265  0.40985399  0.43650698     1.09040
C289        C  0.24941964  0.33742645  0.39851305     1.08980
C290        C  0.28962383  0.30166504  0.47741509     1.08960
O291        O  0.39318615  0.48347377  0.53437874    -0.80660
O292        O  0.41778795  0.41797635  0.60874429    -0.80690
O293        O  0.41305140  0.38137641  0.56417177    -0.80690
O294        O  0.40982304  0.02993410  0.58593096    -0.80640
O295        O  0.37902968  0.41538820  0.57977329    -0.80760
O296        O  0.37404813  0.01785594  0.56389809    -0.80680
O297        O  0.39135285  0.46801172  0.59949015    -0.80660
O298        O  0.38449956  0.43084872  0.54430677    -0.80700
C299        C  0.38144871  0.45142571  0.53262662     1.09030
C300        C  0.38930856  0.44177018  0.60953117     1.08910
C301        C  0.38021028  0.38719345  0.57205972     1.09050
C302        C  0.37687482  0.03325681  0.57714399     1.08930
O303        O  0.46094367  0.04371518  0.56496151    -0.80660
O304        O  0.47002267  0.39243714  0.58336622    -0.80740
O305        O  0.46678859  0.44860989  0.53230375    -0.80680
O306        O  0.46554579  0.49915687  0.60912050    -0.80660
O307        O  0.49024112  0.45118799  0.59813160    -0.80710
O308        O  0.47938575  0.99850697  0.54352487    -0.80670
O309        O  0.49771344  0.00635071  0.57921313    -0.80630
O310        O  0.49693853  0.40914088  0.56014343    -0.80700
Co311      Co  0.42601605  0.00768597  0.55287606     1.51530
Co312      Co  0.43359696  0.43537566  0.58774022     1.51690
Co313      Co  0.44139737  0.42047823  0.55141515     1.51570
Co314      Co  0.44518882  0.98551548  0.58818171     1.51470
O315        O  0.43633709  0.46262516  0.56677683    -1.42600
C316        C  0.49539616  0.03558486  0.57186944     1.08950
C317        C  0.49903849  0.39059235  0.57293133     1.09040
C318        C  0.47796321  0.48101488  0.53127305     1.08980
C319        C  0.49399894  0.47543312  0.60868315     1.08960
O320        O  0.22904252  0.19053902  0.53618104    -0.80660
O321        O  0.21108222  0.25338448  0.61049939    -0.80690
O322        O  0.20856328  0.29029030  0.56511693    -0.80690
O323        O  0.22155384  0.14317378  0.58904478    -0.80640
O324        O  0.24621242  0.25692802  0.58094046    -0.80760
O325        O  0.25502640  0.15818564  0.56684773    -0.80680
O326        O  0.23729732  0.20418719  0.60137562    -0.80660
O327        O  0.23430995  0.24378619  0.54510367    -0.80700
C328        C  0.23861875  0.22314385  0.53392803     1.09030
C329        C  0.23893281  0.22901576  0.61162297     1.08910
C330        C  0.24277066  0.28484481  0.57263345     1.09050
C331        C  0.25331449  0.14091758  0.57996757     1.08930
O332        O  0.17114744  0.12693365  0.56860408    -0.80660
O333        O  0.15542272  0.27878010  0.58515594    -0.80740
O334        O  0.15066118  0.22195224  0.53544784    -0.80680
O335        O  0.16606293  0.17129215  0.61206505    -0.80660
O336        O  0.13833811  0.21865771  0.60042112    -0.80710
O337        O  0.14607218  0.16815555  0.54550964    -0.80670
O338        O  0.13202051  0.16135912  0.58263633    -0.80630
O339        O  0.12459793  0.25983963  0.56310865    -0.80700
Co340      Co  0.20114217  0.16458839  0.55545986     1.51530
Co341      Co  0.19322320  0.23604189  0.58962862     1.51690
Co342      Co  0.17872293  0.25086652  0.55336041     1.51570
Co343      Co  0.18335823  0.18537588  0.59078553     1.51470
O344        O  0.18848409  0.20881285  0.56896558    -1.42600
C345        C  0.13689171  0.13238031  0.57575182     1.08950
C346        C  0.12547854  0.28058349  0.57480121     1.09040
C347        C  0.13923285  0.18958612  0.53433607     1.08980
C348        C  0.13648743  0.19411404  0.61128443     1.08960
O349        O  0.41572871  0.24977855  0.65298540    -0.80660
O350        O  0.40535506  0.19174296  0.72831515    -0.80690
O351        O  0.41098424  0.13807321  0.67765463    -0.80690
O352        O  0.42292123  0.28881334  0.69627486    -0.80640
O353        O  0.38072002  0.15303511  0.70016617    -0.80760
O354        O  0.38375632  0.25397489  0.68260684    -0.80680
O355        O  0.39635464  0.24294605  0.71688529    -0.80660
O356        O  0.39142705  0.19957698  0.66297391    -0.80700
C357        C  0.38737583  0.22588177  0.65297115     1.09030
C358        C  0.39387394  0.22431576  0.72901712     1.08910
C359        C  0.38042805  0.13549497  0.68740898     1.09050
C360        C  0.38792150  0.28299805  0.68953290     1.08930
O361        O  0.47442932  0.27431985  0.67665844    -0.80660
O362        O  0.46666116  0.12586190  0.69813801    -0.80740
O363        O  0.46334271  0.16602432  0.65275070    -0.80680
O364        O  0.47942828  0.22284434  0.72901336    -0.80660
O365        O  0.49048474  0.17428046  0.71735072    -0.80710
O366        O  0.48936671  0.21516451  0.66248619    -0.80670
O367        O  0.50652130  0.25896196  0.69948030    -0.80630
O368        O  0.50080524  0.16066180  0.68214535    -0.80700
Co369      Co  0.43554799  0.23253760  0.67369293     1.51530
Co370      Co  0.43475952  0.16395853  0.70991644     1.51690
Co371      Co  0.44691641  0.18168862  0.67375822     1.51570
Co372      Co  0.45238910  0.25012851  0.70927483     1.51470
O373        O  0.44270698  0.20684222  0.69479726    -1.42600
C374        C  0.50568423  0.27649842  0.68638147     1.08950
C375        C  0.49987926  0.13264795  0.69044765     1.09040
C376        C  0.49173535  0.18983355  0.65246440     1.08980
C377        C  0.49048235  0.19033281  0.72992487     1.08960
O378        O  0.11101060  0.07420035  0.85250676    -0.80660
O379        O  0.10225903  0.03588314  0.79460229    -0.80690
O380        O  0.11687833  0.52329705  0.83136955    -0.80690
O381        O  0.12540434  0.12338437  0.81547600    -0.80640
O382        O  0.07777894  0.49130463  0.81598380    -0.80760
O383        O  0.09656423  0.13728992  0.83853927    -0.80680
O384        O  0.09636710  0.09062605  0.78609899    -0.80660
O385        O  0.08264085  0.02426283  0.86093468    -0.80700
C386        C  0.11186735  0.04703381  0.86212201     1.09030
C387        C  0.10835395  0.05845623  0.78397175     1.08910
C388        C  0.11258055  0.49587828  0.82323863     1.09050
C389        C  0.12580411  0.14091902  0.82825980     1.08930
O390        O  0.00479063  0.11910383  0.83304106    -0.80660
O391        O  0.99391456  0.52452374  0.81459911    -0.80740
O392        O  0.01183070  0.06314149  0.85178262    -0.80680
O393        O  0.01315478  0.11138920  0.79837869    -0.80660
O394        O  0.01908394  0.06284166  0.78576741    -0.80710
O395        O  0.04092276  0.10986831  0.86255477    -0.80670
O396        O  0.04253550  0.15482990  0.81894851    -0.80630
O397        O  0.02687570  0.50421241  0.83638448    -0.80700
Co398      Co  0.05736096  0.09525436  0.84138498     1.51530
Co399      Co  0.04751287  0.03177661  0.80402007     1.51690
Co400      Co  0.06558233  0.04491165  0.84048576     1.51570
Co401      Co  0.07028761  0.11684211  0.80566394     1.51470
O402        O  0.06127601  0.07245073  0.81965243    -1.42600
C403        C  0.00827842  0.14860888  0.82600776     1.08950
C404        C  0.99542827  0.50436248  0.82682179     1.09040
C405        C  0.01095376  0.08751242  0.86236502     1.08980
C406        C  0.00785977  0.09547868  0.78587347     1.08960
O407        O  0.21590949  0.41305873  0.65232511    -0.80660
O408        O  0.23219259  0.47043985  0.72759657    -0.80690
O409        O  0.22613396  0.02344755  0.67473772    -0.80690
O410        O  0.21310463  0.37496407  0.69644926    -0.80640
O411        O  0.25788458  0.00439139  0.69704386    -0.80760
O412        O  0.25049837  0.41052639  0.68207531    -0.80680
O413        O  0.23990481  0.42175876  0.71569216    -0.80660
O414        O  0.24180623  0.46276647  0.66118543    -0.80700
C415        C  0.24383161  0.43707876  0.65133423     1.09030
C416        C  0.24334315  0.43779846  0.72818700     1.08910
C417        C  0.25648020  0.02494585  0.68487666     1.09050
C418        C  0.24702192  0.38125794  0.68924544     1.08930
O419        O  0.16011960  0.38839921  0.67647602    -0.80660
O420        O  0.17473955  0.03785008  0.69510378    -0.80740
O421        O  0.16978091  0.49608031  0.65024846    -0.80680
O422        O  0.15497637  0.44202689  0.72705071    -0.80660
O423        O  0.14983703  0.49643602  0.71768131    -0.80710
O424        O  0.14301072  0.44806446  0.66136771    -0.80670
O425        O  0.12852992  0.40245473  0.69908505    -0.80630
O426        O  0.13613928  0.00568924  0.67944091    -0.80700
Co427      Co  0.19754803  0.43095085  0.67281776     1.51530
Co428      Co  0.20453930  0.49893225  0.70813080     1.51690
Co429      Co  0.18749626  0.48155316  0.67166871     1.51570
Co430      Co  0.18311540  0.41345326  0.70859493     1.51470
O431        O  0.19028325  0.45666923  0.69351751    -1.42600
C432        C  0.12995833  0.38489517  0.68633319     1.08950
C433        C  0.14070846  0.03363193  0.68723173     1.09040
C434        C  0.14075423  0.47271552  0.65056494     1.08980
C435        C  0.14287171  0.47446488  0.72852158     1.08960
O436        O  0.26425090  0.31460811  0.85273352    -0.80660
O437        O  0.26302771  0.35955144  0.79752704    -0.80690
O438        O  0.25293050  0.37015307  0.83255186    -0.80690
O439        O  0.24706117  0.27466821  0.81505685    -0.80640
O440        O  0.28990163  0.40510172  0.81764406    -0.80760
O441        O  0.27737199  0.25520223  0.83745165    -0.80680
O442        O  0.27366059  0.31081599  0.78575833    -0.80660
O443        O  0.28946192  0.36458284  0.86198563    -0.80700
C444        C  0.26239538  0.33981177  0.86289332     1.09030
C445        C  0.26152532  0.34326835  0.78500385     1.08910
C446        C  0.25574671  0.39886578  0.82476160     1.09050
C447        C  0.24691524  0.25436744  0.82721624     1.08930
O448        O  0.36939465  0.27572047  0.83231072    -0.80660
O449        O  0.37367577  0.37584959  0.81502632    -0.80740
O450        O  0.36088192  0.32956430  0.85236548    -0.80680
O451        O  0.35719629  0.28836891  0.79762877    -0.80660
O452        O  0.34752681  0.33957105  0.78635603    -0.80710
O453        O  0.33677826  0.27893555  0.86188661    -0.80670
O454        O  0.33058805  0.24192208  0.81797364    -0.80630
O455        O  0.34351965  0.39089388  0.83760785    -0.80700
Co456      Co  0.31733961  0.29685234  0.84117470     1.51530
Co457      Co  0.31952799  0.36705022  0.80519333     1.51690
Co458      Co  0.30609043  0.34831475  0.84120793     1.51570
Co459      Co  0.30109274  0.28188160  0.80523958     1.51470
O460        O  0.31118129  0.32379810  0.82014811    -1.42600
C461        C  0.36543005  0.24710964  0.82507896     1.08950
C462        C  0.37351919  0.39384810  0.82764551     1.09040
C463        C  0.36457961  0.30329767  0.86242900     1.08980
C464        C  0.35935830  0.30710297  0.78552724     1.08960
C465        C  0.25117075  0.41466703  0.74294709    -0.00680
C466        C  0.24807908  0.37702752  0.74139353    -0.12550
C467        C  0.25109486  0.35313020  0.75456367     0.01560
C468        C  0.25637970  0.36622721  0.77003869    -0.00770
C469        C  0.26062078  0.40380692  0.77152793    -0.12490
C470        C  0.25894487  0.42758437  0.75829345     0.01440
H471        H  0.24271720  0.36575897  0.72973091     0.14420
H472        H  0.26658997  0.41504966  0.78315664     0.14420
C473        C  0.26776358  0.46470900  0.76067668     0.36070
C474        C  0.24828640  0.31545889  0.75182063     0.35980
N475        N  0.27534552  0.49444410  0.76248441    -0.44270
N476        N  0.24617304  0.28525237  0.74957707    -0.44270
C477        C  0.12871568  0.49107752  0.74369945    -0.00680
C478        C  0.15741380  0.49152004  0.75656784    -0.12550
C479        C  0.15485073  0.51716811  0.76861045     0.01560
C480        C  0.12214557  0.04290923  0.76850961    -0.00770
C481        C  0.09336001  0.04255464  0.75563052    -0.12490
C482        C  0.09647469  0.01734888  0.74336517     0.01440
H483        H  0.18356104  0.47308576  0.75669129     0.14100
H484        H  0.06723257  0.06104326  0.75550601     0.14420
C485        C  0.06573620  0.01860323  0.73052271     0.36070
C486        C  0.18747676  0.51767195  0.78072173     0.35980
N487        N  0.04097414  0.01947261  0.72026654    -0.44270
N488        N  0.21437141  0.51862737  0.79013772    -0.44270
C489        C  0.40623577  0.42107190  0.82940177    -0.00680
C490        C  0.44039774  0.41930928  0.81895011    -0.12550
C491        C  0.46875614  0.44699633  0.81770302     0.01560
C492        C  0.46522221  0.47588776  0.82794029    -0.00770
C493        C  0.43259425  0.47754295  0.83892048    -0.12490
C494        C  0.40212447  0.45083100  0.83941485     0.01440
H495        H  0.44395899  0.39701111  0.81105080     0.14420
H496        H  0.42994051  0.50041390  0.84654748     0.14420
C497        C  0.36613297  0.45603458  0.84949207     0.36070
C498        C  0.49995564  0.44584420  0.80528031     0.35980
N499        N  0.33733286  0.46033001  0.85757249    -0.44270
N500        N  0.02442601  0.44491597  0.79517050    -0.44270
C501        C  0.15579210  0.17040059  0.82920067    -0.00680
C502        C  0.16243158  0.18936875  0.81496424    -0.12550
C503        C  0.19045201  0.21741446  0.81422168     0.01560
C504        C  0.21370213  0.22694460  0.82809077    -0.00770
C505        C  0.20623911  0.20850651  0.84255656    -0.12490
C506        C  0.17683484  0.18070128  0.84327101     0.01440
H507        H  0.14520515  0.18231441  0.80419726     0.14420
H508        H  0.22343045  0.21567376  0.85326354     0.14420
C509        C  0.16965169  0.16282207  0.85836917     0.36070
C510        C  0.19471626  0.23478960  0.79875614     0.35980
N511        N  0.16388793  0.14883481  0.87056389    -0.44270
N512        N  0.19761251  0.24849869  0.78632713    -0.44270
C513        C  0.14823212  0.47020485  0.82236803    -0.00680
C514        C  0.18947163  0.48375824  0.82212188    -0.12550
C515        C  0.22475820  0.46121692  0.82245670     0.01560
C516        C  0.21938736  0.42400742  0.82364477    -0.00770
C517        C  0.17812165  0.41037554  0.82399591    -0.12490
C518        C  0.14275399  0.43297466  0.82323480     0.01440
H519        H  0.19419666  0.01230531  0.82181714     0.14420
H520        H  0.17342808  0.38188074  0.82499823     0.14420
C521        C  0.10155376  0.41734689  0.82484836     0.36070
C522        C  0.26605002  0.47718318  0.82218356     0.35980
N523        N  0.06875335  0.40448678  0.82637481    -0.44270
N524        N  0.29908365  0.49008227  0.82187045    -0.44270
C525        C  0.40139532  0.22122247  0.82483145    -0.00680
C526        C  0.44282381  0.23420776  0.82654763    -0.12550
C527        C  0.47792935  0.21130650  0.82670889     0.01560
C528        C  0.47223169  0.17426700  0.82548172    -0.00770
C529        C  0.43088043  0.16116426  0.82391214    -0.12490
C530        C  0.39577399  0.18414399  0.82337735     0.01440
H531        H  0.44792529  0.26253292  0.82772874     0.14420
H532        H  0.42595115  0.13276173  0.82296520     0.14420
C533        C  0.35432760  0.16880546  0.82185539     0.36070
C534        C  0.01936508  0.22635685  0.82883769     0.35980
N535        N  0.32106078  0.15657919  0.82062810    -0.44270
N536        N  0.05263784  0.23827341  0.83057983    -0.44270
C537        C  0.38686059  0.24431133  0.74398258    -0.00680
C538        C  0.35867918  0.23183648  0.75531654    -0.12550
C539        C  0.34808490  0.25273462  0.76838239     0.01560
C540        C  0.36618505  0.28724776  0.77049579    -0.00770
C541        C  0.39437833  0.29973211  0.75914805    -0.12490
C542        C  0.40517633  0.27872455  0.74612971     0.01440
H543        H  0.34393408  0.20613578  0.75372651     0.14420
H544        H  0.40927216  0.32535500  0.76077258     0.14420
C545        C  0.43693693  0.29306271  0.73564700     0.36070
C546        C  0.31742050  0.23775093  0.77913907     0.35980
N547        N  0.46284025  0.30518173  0.72762974    -0.44270
N548        N  0.29276403  0.22470833  0.78742710    -0.44270
C549        C  0.10046663  0.35584861  0.68438696    -0.00680
C550        C  0.06315952  0.36155983  0.67569903    -0.12550
C551        C  0.03208694  0.33532280  0.67543251     0.01560
C552        C  0.03931024  0.30249892  0.68357456    -0.00770
C553        C  0.07797636  0.29638345  0.69140834    -0.12490
C554        C  0.10804749  0.32301848  0.69223273     0.01440
H555        H  0.05741996  0.38714794  0.66987966     0.14420
H556        H  0.08377342  0.27138063  0.69774095     0.14420
C557        C  0.14496638  0.31669162  0.70215506     0.36070
C558        C  0.49196221  0.34423220  0.66812017     0.35980
N559        N  0.17403419  0.31117203  0.71030779    -0.44270
N560        N  0.45959837  0.35150824  0.66246062    -0.44270
C561        C  0.28569406  0.05489135  0.68448710    -0.00680
C562        C  0.30967539  0.06237903  0.67090915    -0.12550
C563        C  0.34007998  0.08942220  0.67114861     0.01560
C564        C  0.34612966  0.10938054  0.68517918    -0.00770
C565        C  0.31971200  0.10298598  0.69826470    -0.12490
C566        C  0.28995395  0.07614037  0.69805863     0.01440
H567        H  0.30551938  0.04646542  0.66034179     0.14420
H568        H  0.32286997  0.11833214  0.70904239     0.14420
C569        C  0.26392212  0.07116261  0.71199362     0.36070
C570        C  0.36434857  0.09582330  0.65692829     0.35980
N571        N  0.24313222  0.06715586  0.72313437    -0.44270
N572        N  0.38365553  0.10086584  0.64548037    -0.44270
C573        C  0.28232252  0.35568123  0.68962176    -0.00680
C574        C  0.32233361  0.36746425  0.69439502    -0.12550
C575        C  0.35713119  0.34444313  0.69468094     0.01560
C576        C  0.35218101  0.30867906  0.69003082    -0.00770
C577        C  0.31179728  0.29705932  0.68531728    -0.12490
C578        C  0.27723648  0.32025738  0.68488017     0.01440
H579        H  0.32639488  0.39485864  0.69791724     0.14420
H580        H  0.30729918  0.26992827  0.68150833     0.14420
C581        C  0.23776138  0.30785193  0.67834065     0.36070
C582        C  0.39745669  0.35869672  0.69943324     0.35980
N583        N  0.20639729  0.29795262  0.67284721    -0.44270
N584        N  0.42972882  0.37023903  0.70323642    -0.44270
C585        C  0.03617478  0.10751433  0.69008444    -0.00680
C586        C  0.04456156  0.09063087  0.67568510    -0.12550
C587        C  0.07978653  0.06834626  0.67415021     0.01560
C588        C  0.10625351  0.06064685  0.68750027    -0.00770
C589        C  0.09920623  0.07899055  0.70160641    -0.12490
C590        C  0.06559347  0.10304505  0.70283879     0.01440
H591        H  0.02444003  0.09611133  0.66535634     0.14420
H592        H  0.12057365  0.07497250  0.71169637     0.14420
C593        C  0.06616087  0.12530582  0.71659040     0.36070
C594        C  0.09105570  0.05826493  0.65827608     0.35980
N595        N  0.07054910  0.14289260  0.72765778    -0.44270
N596        N  0.10001225  0.05238065  0.64525321    -0.44270
C597        C  0.99727708  0.11879034  0.77157047    -0.00680
C598        C  0.50017618  0.15635262  0.77335576    -0.12550
C599        C  0.49746481  0.18038811  0.76030838     0.01560
C600        C  0.49176546  0.16742982  0.74486688    -0.00770
C601        C  0.98551289  0.13014213  0.74325832    -0.12490
C602        C  0.98835536  0.10608832  0.75628346     0.01440
H603        H  0.50609354  0.16739380  0.78502974     0.14420
H604        H  0.97876512  0.11927997  0.73161431     0.14420
C605        C  0.98128911  0.06877929  0.75363168     0.36070
C606        C  0.50163799  0.21794797  0.76310312     0.35980
N607        N  0.97550003  0.03887120  0.75150302    -0.44270
N608        N  0.50483858  0.24807053  0.76538160    -0.44270
C609        C  0.09914475  0.19123420  0.62160984    -0.00680
C610        C  0.10496782  0.19024080  0.63819460    -0.12550
C611        C  0.07038058  0.18947634  0.64841619     0.01560
C612        C  0.02892430  0.18768500  0.64204694    -0.00770
C613        C  0.02313632  0.18742195  0.62543971    -0.12490
C614        C  0.05770891  0.19008803  0.61520109     0.01440
H615        H  0.13662756  0.19139112  0.64317508     0.14420
H616        H  0.49146138  0.18666719  0.62045894     0.14420
C617        C  0.04972897  0.19127710  0.59818760     0.36070
C618        C  0.07855686  0.19115536  0.66538356     0.35980
N619        N  0.04300943  0.19227505  0.58457184    -0.44270
N620        N  0.08570028  0.19283326  0.67893309    -0.44270
C621        C  0.27440177  0.22884039  0.62343772    -0.00680
C622        C  0.29146277  0.26076259  0.62902686    -0.12550
C623        C  0.32787247  0.26057874  0.63883204     0.01560
C624        C  0.34885957  0.22826903  0.64265763    -0.00770
C625        C  0.33049903  0.19644267  0.63770295    -0.12490
C626        C  0.29343251  0.19635447  0.62853283     0.01440
H627        H  0.27639854  0.28580596  0.62577836     0.14420
H628        H  0.34496689  0.17128317  0.64117554     0.14420
C629        C  0.27481929  0.16222769  0.62517329     0.36070
C630        C  0.34037283  0.29318791  0.64616758     0.35980
N631        N  0.26006151  0.13473824  0.62271316    -0.44270
N632        N  0.34947527  0.31898859  0.65261256    -0.44270
C633        C  0.35225534  0.43892541  0.62042679    -0.00680
C634        C  0.32153276  0.46594025  0.61957015    -0.12550
C635        C  0.28555551  0.46473922  0.62905023     0.01560
C636        C  0.27912278  0.43602667  0.63981978    -0.00770
C637        C  0.30944761  0.40866303  0.64071501    -0.12490
C638        C  0.34588940  0.41006384  0.63119214     0.01440
H639        H  0.32534223  0.98830041  0.61135219     0.14420
H640        H  0.30536701  0.38687168  0.64920855     0.14420
C641        C  0.37701741  0.38227387  0.63279230     0.36070
C642        C  0.25527466  0.99327787  0.62722696     0.35980
N643        N  0.40322630  0.36087150  0.63349000    -0.44270
N644        N  0.23132091  0.01629828  0.62552759    -0.44270
C645        C  0.10311662  0.47479746  0.63990412    -0.00680
C646        C  0.10818080  0.47811125  0.62334574    -0.12550
C647        C  0.07309786  0.47816140  0.61295450     0.01560
C648        C  0.03188177  0.47659317  0.61916999    -0.00770
C649        C  0.02680924  0.47423454  0.63573874    -0.12490
C650        C  0.06186096  0.47250693  0.64608398     0.01440
H651        H  0.13965809  0.47957143  0.61849985     0.14420
H652        H  0.49533810  0.47266906  0.64059207     0.14420
C653        C  0.05447829  0.46920444  0.66303105     0.36070
C654        C  0.08045010  0.47979153  0.59598822     0.35980
N655        N  0.04836233  0.46652867  0.67659445    -0.44270
N656        N  0.08694219  0.48090942  0.58242168    -0.44270
C657        C  0.09469226  0.30981434  0.57482591    -0.00680
C658        C  0.07709224  0.32103967  0.58917241    -0.12550
C659        C  0.04631063  0.34791752  0.58909628     0.01560
C660        C  0.03317020  0.36391828  0.57443489    -0.00770
C661        C  0.05233955  0.35344507  0.56026429    -0.12490
C662        C  0.08275698  0.32695653  0.56031037     0.01440
H663        H  0.08684475  0.30841859  0.60037000     0.14420
H664        H  0.04311277  0.36558672  0.54889409     0.14420
C665        C  0.10187918  0.31871855  0.54521559     0.36070
C666        C  0.02956373  0.35895137  0.60416529     0.35980
N667        N  0.11711536  0.31218309  0.53313330    -0.44270
N668        N  0.01627389  0.36787283  0.61625727    -0.44270
C669        C  0.34347385  0.05820401  0.58128518    -0.00680
C670        C  0.35491791  0.09147196  0.58730633    -0.12550
C671        C  0.32543462  0.11907458  0.58770349     0.01560
C672        C  0.28370894  0.11257875  0.58283665    -0.00770
C673        C  0.27146285  0.07863865  0.57821177    -0.12490
C674        C  0.30107163  0.05162347  0.57702112     0.01440
H675        H  0.38752888  0.09678234  0.59042204     0.14420
H676        H  0.23922166  0.07400286  0.57432436     0.14420
C677        C  0.28748120  0.01852299  0.57019776     0.36070
C678        C  0.33905505  0.15409900  0.59221890     0.35980
N679        N  0.27628987  0.99253680  0.56433487    -0.44270
N680        N  0.35013209  0.18217582  0.59577764    -0.44270
C681        C  0.03163614  0.06042895  0.57249996    -0.00680
C682        C  0.04374646  0.07380889  0.58739646    -0.12550
C683        C  0.07899540  0.09603243  0.58895121     0.01560
C684        C  0.10237954  0.10595108  0.57534251    -0.00770
C685        C  0.09170227  0.09110728  0.56068901    -0.12490
C686        C  0.05711636  0.06836261  0.55916010     0.01440
H687        H  0.02612486  0.06618919  0.59793339     0.14420
H688        H  0.11053392  0.09742624  0.55029256     0.14420
C689        C  0.05161964  0.05201376  0.54393731     0.36070
C690        C  0.09282497  0.10503560  0.60480740     0.35980
N691        N  0.05104021  0.03979196  0.53139160    -0.44270
N692        N  0.10391856  0.11079202  0.61770394    -0.44270
C693        C  0.27773331  0.31086470  0.57198639    -0.00680
C694        C  0.27050741  0.34572322  0.57681931    -0.12550
C695        C  0.30322754  0.37075074  0.57723038     0.01560
C696        C  0.34427899  0.36142728  0.57220037    -0.00770
C697        C  0.35104347  0.32649146  0.56703363    -0.12490
C698        C  0.31848966  0.30123437  0.56709488     0.01440
H699        H  0.23928962  0.35319530  0.58068955     0.14420
H700        H  0.38205005  0.31864152  0.56310410     0.14420
C701        C  0.32743338  0.26580066  0.56171493     0.36070
C702        C  0.29320615  0.40561612  0.58294994     0.35980
N703        N  0.33462593  0.23743075  0.55737447    -0.44270
N704        N  0.28450656  0.43328382  0.58772127    -0.44270
C705        C  0.26829608  0.28029911  0.49001438    -0.00680
C706        C  0.27848547  0.24374023  0.49161816    -0.12550
C707        C  0.26814594  0.22369597  0.50540687     0.01560
C708        C  0.24766322  0.24034957  0.51804963    -0.00770
C709        C  0.23511414  0.27636563  0.51584252    -0.12490
C710        C  0.24527446  0.29623335  0.50210587     0.01440
H711        H  0.29630703  0.23114189  0.48231054     0.14420
H712        H  0.21808155  0.28966967  0.52515979     0.14420
C713        C  0.23480526  0.33359469  0.50131591     0.36070
C714        C  0.28088879  0.18692863  0.50660983     0.35980
N715        N  0.22657164  0.36357352  0.50071946    -0.44270
N716        N  0.29106373  0.15740042  0.50752864    -0.44270
C717        C  0.36508417  0.39687632  0.48765940    -0.00680
C718        C  0.35955485  0.43413145  0.48812820    -0.12550
C719        C  0.36557072  0.45310375  0.50233139     0.01560
C720        C  0.37533139  0.43451670  0.51668135    -0.00770
C721        C  0.38268715  0.39741657  0.51589549    -0.12490
C722        C  0.37799507  0.37879172  0.50168397     0.01440
H723        H  0.34808804  0.44824369  0.47753908     0.14420
H724        H  0.39176664  0.38234008  0.52655849     0.14420
C725        C  0.38301186  0.34062124  0.50222632     0.36070
C726        C  0.35966536  0.49112729  0.50191480     0.35980
N727        N  0.38710648  0.31005348  0.50287639    -0.44270
N728        N  0.35506208  0.52165243  0.50145912    -0.44270
C729        C  0.00188712  0.04751047  0.49014304    -0.00680
C730        C  0.97347844  0.05863178  0.50151321    -0.12550
C731        C  0.46307138  0.03635511  0.51442102     0.01560
C732        C  0.48103515  0.00156940  0.51606731    -0.00770
C733        C  0.50813158  0.98994197  0.50438826    -0.12490
C734        C  0.51964955  0.01268754  0.49177686     0.01440
H735        H  0.95951871  0.08491872  0.50035355     0.14420
H736        H  0.52309290  0.46410102  0.50585304     0.14420
C737        C  0.55343452  0.00008740  0.48207552     0.36070
C738        C  0.93447212  0.05085329  0.52588707     0.35980
N739        N  0.58131929  0.98806985  0.47523285    -0.44270
N740        N  0.91139266  0.06343115  0.53476146    -0.44270
C741        C  0.40649203  0.23615908  0.43793304    -0.00680
C742        C  0.43557350  0.23317642  0.45055330    -0.12550
C743        C  0.46670017  0.20731923  0.45039374     0.01560
C744        C  0.46948684  0.18478209  0.43719328    -0.00770
C745        C  0.44154777  0.18818167  0.42434122    -0.12490
C746        C  0.40949196  0.21334020  0.42466993     0.01440
H747        H  0.43327097  0.25033057  0.46077508     0.14420
H748        H  0.44418375  0.17059385  0.41427568     0.14420
C749        C  0.38105935  0.21537493  0.41106839     0.36070
C750        C  0.49523939  0.20430511  0.46395181     0.35980
N751        N  0.35846022  0.21674805  0.40012346    -0.44270
N752        N  0.51794311  0.20182864  0.47483634    -0.44270
C753        C  0.16728858  0.49382805  0.43864845    -0.00680
C754        C  0.15863703  0.46409225  0.42929576    -0.12550
C755        C  0.18712975  0.43621630  0.42856018     0.01560
C756        C  0.22543188  0.43837835  0.43698890    -0.00770
C757        C  0.23527391  0.46858372  0.44578985    -0.12490
C758        C  0.20623149  0.49629691  0.44683997     0.01440
H759        H  0.12838006  0.46152446  0.42328745     0.14420
H760        H  0.26526047  0.47010385  0.45209687     0.14420
C761        C  0.21695613  0.02652382  0.45644825     0.36070
C762        C  0.17546736  0.40530800  0.41956753     0.35980
N763        N  0.22554010  0.05067018  0.46419493    -0.44270
N764        N  0.16511389  0.38077176  0.41239449    -0.44270
C765        C  0.41587488  0.41924365  0.43669339    -0.00680
C766        C  0.41683825  0.44729717  0.44735964    -0.12550
C767        C  0.45063671  0.47109154  0.44768212     0.01560
C768        C  0.48594509  0.46588334  0.43774996    -0.00770
C769        C  0.48616349  0.43673572  0.42773039    -0.12490
C770        C  0.45166737  0.41375438  0.42696630     0.01440
H771        H  0.38935813  0.45265072  0.45445867     0.14420
H772        H  0.51256555  0.43298798  0.41982131     0.14420
C773        C  0.45361945  0.38634873  0.41525319     0.36070
C774        C  0.44409574  0.50300542  0.45654542     0.35980
N775        N  0.45612242  0.36526632  0.40546753    -0.44270
N776        N  0.43511798  0.02802514  0.46356240    -0.44270
C777        C  0.21898496  0.24349879  0.44702232    -0.00680
C778        C  0.17765101  0.25676417  0.44748901    -0.12550
C779        C  0.14309201  0.23362731  0.44721667     0.01560
C780        C  0.15009154  0.19677656  0.44593744    -0.00770
C781        C  0.19154224  0.18366463  0.44635525    -0.12490
C782        C  0.22589221  0.20659775  0.44715137     0.01440
H783        H  0.17240215  0.28526954  0.44715494     0.14420
H784        H  0.19718006  0.15533131  0.44545009     0.14420
C785        C  0.26785843  0.19180293  0.44651441     0.36070
C786        C  0.10114971  0.24850618  0.44676004     0.35980
N787        N  0.30149230  0.18003029  0.44598639    -0.44270
N788        N  0.06753563  0.26044827  0.44636924    -0.44270
C789        C  0.12408245  0.12033747  0.49507962    -0.00680
C790        C  0.09266904  0.12198954  0.50671369    -0.12550
C791        C  0.09404064  0.14779269  0.51863634     0.01560
C792        C  0.12715774  0.17285592  0.51911344    -0.00770
C793        C  0.15839398  0.17117660  0.50745236    -0.12490
C794        C  0.15754383  0.14496488  0.49576920     0.01440
H795        H  0.06585335  0.10426291  0.50604963     0.14420
H796        H  0.18519523  0.18882657  0.50811499     0.14420
C797        C  0.19251598  0.14266417  0.48500308     0.36070
C798        C  0.06074741  0.14848644  0.53020354     0.35980
N799        N  0.22116258  0.14035113  0.47668968    -0.44270
N800        N  0.03393867  0.14912146  0.53942535    -0.44270
C801        C  0.40072857  0.08946181  0.89201301    -0.00680
C802        C  0.44121218  0.08825435  0.89901464    -0.12550
C803        C  0.47755925  0.08952837  0.88963032     0.01560
C804        C  0.47380005  0.09069598  0.87284419    -0.00770
C805        C  0.43330171  0.09209839  0.86582069    -0.12490
C806        C  0.39694268  0.09205847  0.87524748     0.01440
H807        H  0.44443688  0.08575913  0.91188183     0.14420
H808        H  0.43007001  0.09282560  0.85291002     0.14420
C809        C  0.35613245  0.09259748  0.86746614     0.36070
C810        C  0.01825662  0.08753552  0.89746337     0.35980
N811        N  0.32335383  0.09295258  0.86127174    -0.44270
N812        N  0.05082656  0.08587361  0.90378237    -0.44270
C813        C  0.21909259  0.04574138  0.89416280    -0.00680
C814        C  0.21411273  0.01836086  0.88308398    -0.12550
C815        C  0.17748248  0.01610676  0.87350785     0.01560
C816        C  0.14678921  0.04324576  0.87389463    -0.00770
C817        C  0.15067010  0.06937012  0.88538859    -0.12490
C818        C  0.18484799  0.06957625  0.89604981     0.01440
H819        H  0.23834705  0.99820171  0.88212864     0.14420
H820        H  0.12589105  0.08906242  0.88641773     0.14420
C821        C  0.18057498  0.09161697  0.90977583     0.36070
C822        C  0.17133497  0.98479895  0.86419546     0.35980
N823        N  0.17453988  0.10803130  0.92104128    -0.44270
N824        N  0.16650662  0.95850992  0.85750554    -0.44270
C825        C  0.15477285  0.33827579  0.89387005    -0.00680
C826        C  0.17859504  0.30744183  0.89142460    -0.12550
C827        C  0.21440875  0.30793752  0.88194534     0.01560
C828        C  0.22757454  0.33994408  0.87452646    -0.00770
C829        C  0.20507328  0.37135374  0.87742232    -0.12490
C830        C  0.16892797  0.37080064  0.88703331     0.01440
H831        H  0.16925250  0.28256280  0.89697784     0.14420
H832        H  0.21517566  0.39616207  0.87190585     0.14420
C833        C  0.14796637  0.40401091  0.89009015     0.36070
C834        C  0.23787386  0.27522465  0.88051123     0.35980
N835        N  0.13120834  0.43059367  0.89268055    -0.44270
N836        N  0.25666242  0.24898486  0.87955005    -0.44270
C837        C  0.40248803  0.30100854  0.87328027    -0.00680
C838        C  0.41776989  0.26780885  0.87894476    -0.12550
C839        C  0.45475347  0.26524285  0.88849249     0.01560
C840        C  0.47724893  0.29631553  0.89252920    -0.00770
C841        C  0.46171869  0.32921920  0.88697329    -0.12490
C842        C  0.42511717  0.33187728  0.87758468     0.01440
H843        H  0.40097514  0.24379036  0.87585752     0.14420
H844        H  0.47812651  0.35338796  0.89019149     0.14420
C845        C  0.41086139  0.36719112  0.87329309     0.36070
C846        C  0.46767015  0.23072195  0.89456308     0.35980
N847        N  0.39998221  0.39583669  0.87016930    -0.44270
N848        N  0.47775156  0.20295043  0.89942406    -0.44270
C849        C  0.47412150  0.41535064  0.93511932    -0.00680
C850        C  0.43635941  0.40933061  0.92684673    -0.12550
C851        C  0.40533667  0.43577184  0.92596887     0.01560
C852        C  0.41292891  0.46886924  0.93322071    -0.00770
C853        C  0.45211373  0.47531293  0.94047810    -0.12490
C854        C  0.48226298  0.44866707  0.94181438     0.01440
H855        H  0.43033703  0.38345527  0.92180098     0.14420
H856        H  0.45820902  0.50060141  0.94607869     0.14420
C857        C  0.01965084  0.45546445  0.95127215     0.36070
C858        C  0.36508755  0.42703677  0.91886177     0.35980
N859        N  0.04886745  0.46145195  0.95915732    -0.44270
N860        N  0.33275575  0.41995992  0.91325468    -0.44270
C861        C  0.16719559  0.22249715  0.93805917    -0.00680
C862        C  0.19000654  0.21401791  0.95213203    -0.12550
C863        C  0.21972653  0.18705184  0.95252980     0.01560
C864        C  0.22817649  0.16848118  0.93849381    -0.00770
C865        C  0.20937373  0.17955324  0.92399710    -0.12490
C866        C  0.17760533  0.20537704  0.92375011     0.01440
H867        H  0.18339990  0.22728793  0.96321138     0.14420
H868        H  0.21744472  0.16633972  0.91305010     0.14420
C869        C  0.15529976  0.21225224  0.90888924     0.36070
C870        C  0.24131978  0.17933781  0.96753023     0.35980
N871        N  0.13725659  0.21712466  0.89695342    -0.44270
N872        N  0.25857105  0.17314606  0.97952203    -0.44270
C873        C  0.40819439  0.16433444  0.94108782    -0.00680
C874        C  0.44880248  0.15222526  0.93724764    -0.12550
C875        C  0.48374737  0.17507979  0.93756498     0.01560
C876        C  0.47834661  0.21106682  0.94141973    -0.00770
C877        C  0.43811637  0.22317414  0.94544660    -0.12490
C878        C  0.40338178  0.20021197  0.94560331     0.01440
H879        H  0.45342281  0.12471944  0.93410254     0.14420
H880        H  0.43387411  0.25077095  0.94861153     0.14420
C881        C  0.36324307  0.21457491  0.95024401     0.36070
C882        C  0.52448271  0.16148207  0.93321041     0.35980
N883        N  0.33118202  0.22610496  0.95406990    -0.44270
N884        N  0.05724558  0.15084142  0.92971349    -0.44270
C885        C  0.22531808  0.46294589  0.94160570    -0.00680
C886        C  0.23305510  0.42626017  0.94323707    -0.12550
C887        C  0.19973724  0.40168146  0.94364285     0.01560
C888        C  0.15747391  0.41360145  0.94244404    -0.00770
C889        C  0.14971540  0.45021791  0.94134192    -0.12490
C890        C  0.18288212  0.47478641  0.94099560     0.01440
H891        H  0.26525569  0.41667110  0.94402162     0.14420
H892        H  0.11753380  0.45974248  0.94049653     0.14420
C893        C  0.17201927  0.01202577  0.94079988     0.36070
C894        C  0.20977002  0.36444296  0.94585304     0.35980
N895        N  0.16274669  0.04175890  0.94089853    -0.44270
N896        N  0.21776497  0.33461381  0.94772112    -0.44270
C897        C  0.26196512  0.02240510  0.99527958    -0.00680
C898        C  0.22884806  0.03182425  0.00509888    -0.12550
C899        C  0.21590683  0.50886650  0.01753451     0.01560
C900        C  0.23692425  0.47579360  0.02073194    -0.00770
C901        C  0.26977919  0.46619167  0.01085240    -0.12490
C902        C  0.28215136  0.98875523  0.99819142     0.01440
H903        H  0.21187940  0.05641143  0.00265160     0.14420
H904        H  0.28660626  0.44152113  0.01327943     0.14420
C905        C  0.31625402  0.97635441  0.98847094     0.36070
C906        C  0.17964124  0.51962478  0.02652048     0.35980
N907        N  0.34360321  0.96583746  0.98085859    -0.44270
N908        N  0.15042014  0.52858434  0.03353634    -0.44270
C909        C  0.12265268  0.39754098  0.02335795    -0.00680
C910        C  0.11862469  0.35993666  0.02525832    -0.12550
C911        C  0.11742871  0.33679687  0.01222509     0.01560
C912        C  0.11944233  0.35071076  0.99658304    -0.00770
C913        C  0.12347187  0.38823478  0.99468542    -0.12490
C914        C  0.12469682  0.41135609  0.00768300     0.01440
H915        H  0.11727678  0.34801365  0.03712614     0.14420
H916        H  0.12472173  0.40018395  0.98281596     0.14420
C917        C  0.12696847  0.44902225  0.00434011     0.36070
C918        C  0.11459843  0.29901830  0.01532908     0.35980
N919        N  0.12808082  0.47907089  0.00118249    -0.44270
N920        N  0.11245139  0.26873797  0.01787872    -0.44270
C921        C  0.37518363  0.09962518  0.99405649    -0.00680
C922        C  0.37681163  0.13733017  0.99200539    -0.12550
C923        C  0.37759877  0.16065959  0.00494477     0.01560
C924        C  0.37748198  0.14689054  0.02062517    -0.00770
C925        C  0.37497372  0.10924373  0.02267013    -0.12490
C926        C  0.37401247  0.08591601  0.00974035     0.01440
H927        H  0.37693045  0.14917330  0.98010646     0.14420
H928        H  0.37502616  0.09739307  0.03456592     0.14420
C929        C  0.37290719  0.04815517  0.01303697     0.36070
C930        C  0.37823355  0.19846889  0.00171343     0.35980
N931        N  0.37238891  0.01793168  0.01586047    -0.44270
N932        N  0.37859102  0.22876713  0.99905762    -0.44270
C933        C  0.03441393  0.08798466  0.08073915    -0.00680
C934        C  0.02636713  0.05777505  0.09034110    -0.12550
C935        C  0.05533664  0.02978596  0.09136685     0.01560
C936        C  0.09356408  0.03261927  0.08319693    -0.00770
C937        C  0.10276278  0.06341280  0.07440603    -0.12490
C938        C  0.07348153  0.09076594  0.07284337     0.01440
H939        H  0.49631545  0.05496413  0.09624428     0.14420
H940        H  0.13214707  0.06518592  0.06793513     0.14420
C941        C  0.08391003  0.11987684  0.06217300     0.36070
C942        C  0.04386682  0.49798207  0.10006845     0.35980
N943        N  0.09289963  0.14226517  0.05321340    -0.44270
N944        N  0.03339724  0.47286411  0.10710217    -0.44270
C945        C  0.34859536  0.28589484  0.07852465    -0.00680
C946        C  0.31064198  0.27839024  0.08612050    -0.12550
C947        C  0.27916879  0.30428110  0.08676572     0.01560
C948        C  0.28617399  0.33830934  0.07980532    -0.00770
C949        C  0.32488915  0.34584483  0.07263917    -0.12490
C950        C  0.35591300  0.31983115  0.07179374     0.01440
H951        H  0.30499106  0.25188416  0.09094759     0.14420
H952        H  0.33030924  0.37174833  0.06713331     0.14420
C953        C  0.39390867  0.32800904  0.06314865     0.36070
C954        C  0.23902107  0.29415645  0.09336148     0.35980
N955        N  0.42400215  0.33476955  0.05606474    -0.44270
N956        N  0.20676283  0.28597331  0.09853675    -0.44270
C957        C  0.34540459  0.08469580  0.07561541    -0.00680
C958        C  0.31326530  0.08857390  0.06409439    -0.12550
C959        C  0.27761185  0.06645549  0.06429069     0.01560
C960        C  0.27396668  0.03910268  0.07607592    -0.00770
C961        C  0.30588631  0.03633250  0.08790410    -0.12490
C962        C  0.34112519  0.05879832  0.08780481     0.01440
H963        H  0.31572445  0.10938760  0.05501538     0.14420
H964        H  0.30298734  0.01690132  0.09748059     0.14420
C965        C  0.37218031  0.05529933  0.10048335     0.36070
C966        C  0.24533355  0.07352448  0.05243037     0.35980
N967        N  0.39704507  0.05281100  0.11066408    -0.44270
N968        N  0.21997282  0.08088195  0.04290434    -0.44270
C969        C  0.03122821  0.28379368  0.07410756    -0.00680
C970        C  0.02478454  0.31681080  0.08102806    -0.12550
C971        C  0.05764741  0.34143018  0.08229280     0.01560
C972        C  0.09826354  0.33324150  0.07644224    -0.00770
C973        C  0.10420341  0.30019744  0.06924343    -0.12490
C974        C  0.07123068  0.27565067  0.06804457     0.01440
H975        H  0.99395166  0.32324812  0.08562849     0.14420
H976        H  0.13466095  0.29349677  0.06440225     0.14420
C977        C  0.07878089  0.24316299  0.05974126     0.36070
C978        C  0.04788830  0.37499139  0.08936360     0.35980
N979        N  0.08529607  0.21757104  0.05276562    -0.44270
N980        N  0.03931700  0.40178775  0.09502170    -0.44270
C981        C  0.99480328  0.22270146  0.02039516    -0.00680
C982        C  0.00240928  0.25963740  0.02264584    -0.12550
C983        C  0.00418089  0.28443791  0.00987479     0.01560
C984        C  0.99917552  0.27292359  0.99413126    -0.00770
C985        C  0.49037199  0.23614981  0.99191807    -0.12490
C986        C  0.48896716  0.21130000  0.00467731     0.01440
H987        H  0.00645792  0.26976294  0.03459739     0.14420
H988        H  0.48622417  0.22605455  0.97996281     0.14420
C989        C  0.48305849  0.17422988  0.00117622     0.36070
C990        C  0.01081049  0.32142870  0.01336243     0.35980
N991        N  0.47877229  0.14448472  0.99829188    -0.44270
N992        N  0.01574873  0.35109842  0.01625535    -0.44270
C993        C  0.10088985  0.20642235  0.14349547    -0.00680
C994        C  0.08386886  0.17361195  0.13899063    -0.12550
C995        C  0.04866237  0.17161594  0.12880131     0.01560
C996        C  0.02854069  0.20305660  0.12305400    -0.00770
C997        C  0.04532240  0.23602261  0.12763685    -0.12490
C998        C  0.08141148  0.23789713  0.13757707     0.01440
H999        H  0.09843644  0.14913070  0.14336117     0.14420
H1000       H  0.03076333  0.26040746  0.12318385     0.14420
C1001       C  0.09750508  0.27233056  0.14171861     0.36070
C1002       C  0.03362121  0.13666417  0.12477066     0.35980
N1003       N  0.11099598  0.29975178  0.14508041    -0.44270
N1004       N  0.02190548  0.10853262  0.12160072    -0.44270
C1005       C  0.27681491  0.16808956  0.14203329    -0.00680
C1006       C  0.29580500  0.20020601  0.13733295    -0.12550
C1007       C  0.33173236  0.20085046  0.12782451     0.01560
C1008       C  0.35041118  0.16866136  0.12292886    -0.00770
C1009       C  0.33157608  0.13638115  0.12764383    -0.12490
C1010       C  0.29484506  0.13582094  0.13692370     0.01440
H1011       H  0.28249287  0.22518999  0.14114976     0.14420
H1012       H  0.34509294  0.11152292  0.12382999     0.14420
C1013       C  0.27716169  0.10176116  0.14133508     0.36070
C1014       C  0.34923490  0.23520306  0.12371174     0.35980
N1015       N  0.26310932  0.07440022  0.14486530    -0.44270
N1016       N  0.36293268  0.26286346  0.12047840    -0.44270
C1017       C  0.35494731  0.45226505  0.14357898    -0.00680
C1018       C  0.31511978  0.44588917  0.15024794    -0.12550
C1019       C  0.27843503  0.44620628  0.14070587     0.01560
C1020       C  0.28124889  0.45230583  0.12411521    -0.00770
C1021       C  0.32112545  0.45741292  0.11735677    -0.12490
C1022       C  0.35769510  0.45838118  0.12695704     0.01440
H1023       H  0.31264530  0.44058975  0.16297730     0.14420
H1024       H  0.32378856  0.46028235  0.10451142     0.14420
C1025       C  0.39780803  0.46393403  0.11940059     0.36070
C1026       C  0.23856051  0.43794920  0.14799234     0.35980
N1027       N  0.42999541  0.46844328  0.11337215    -0.44270
N1028       N  0.20657359  0.43099786  0.15372472    -0.44270
C1029       C  0.10814974  0.41200166  0.12689429    -0.00680
C1030       C  0.08560875  0.38040542  0.12977307    -0.12550
C1031       C  0.04910327  0.38024370  0.13925489     0.01560
C1032       C  0.03486187  0.41211826  0.14613736    -0.00770
C1033       C  0.05850705  0.44323437  0.14359815    -0.12490
C1034       C  0.09442626  0.44349033  0.13415183     0.01440
H1035       H  0.09545800  0.35621256  0.12406003     0.14420
H1036       H  0.04855261  0.46800251  0.14881301     0.14420
C1037       C  0.11614792  0.47693194  0.13190799     0.36070
C1038       C  0.02706017  0.34716988  0.14178905     0.35980
N1039       N  0.13306614  0.00388822  0.13005409    -0.44270
N1040       N  0.00923305  0.32074689  0.14394844    -0.44270
C1041       C  0.03696668  0.03627083  0.18394950    -0.00680
C1042       C  0.07851420  0.02810789  0.18010270    -0.12550
C1043       C  0.10964127  0.05415417  0.18084921     0.01560
C1044       C  0.09887466  0.08881228  0.18564479    -0.00770
C1045       C  0.05715138  0.09716601  0.18897330    -0.12490
C1046       C  0.02606671  0.07126555  0.18816313     0.01440
H1047       H  0.08689022  0.50103954  0.17718075     0.14420
H1048       H  0.04909646  0.12378067  0.19269829     0.14420
C1049       C  0.48426174  0.08121751  0.19294405     0.36070
C1050       C  0.15266874  0.04382733  0.17790514     0.35980
N1051       N  0.45152490  0.09075817  0.19702696    -0.44270
N1052       N  0.18709717  0.03542535  0.17558691    -0.44270
C1053       C  0.28443970  0.28810018  0.18640023    -0.00680
C1054       C  0.31158100  0.29406691  0.17359640    -0.12550
C1055       C  0.34170041  0.32131502  0.17422343     0.01560
C1056       C  0.34490529  0.34264174  0.18799811    -0.00770
C1057       C  0.31518828  0.33802464  0.20012539    -0.12490
C1058       C  0.28522890  0.31122235  0.19942311     0.01440
H1059       H  0.31016892  0.27677216  0.16338798     0.14420
H1060       H  0.31599780  0.35465779  0.21055799     0.14420
C1061       C  0.25552309  0.30821857  0.21229981     0.36070
C1062       C  0.36867902  0.32648341  0.16063211     0.35980
N1063       N  0.23165400  0.30660416  0.22260875    -0.44270
N1064       N  0.39009473  0.33066396  0.14967839    -0.44270
C1065       C  0.35544209  0.03804702  0.19003648    -0.00680
C1066       C  0.32147329  0.03067702  0.20004330    -0.12550
C1067       C  0.28633318  0.05323987  0.20032667     0.01560
C1068       C  0.28449003  0.08378194  0.19014809    -0.00770
C1069       C  0.31872411  0.09073171  0.18000268    -0.12490
C1070       C  0.35368254  0.06797165  0.17973524     0.01440
H1071       H  0.32237727  0.00700014  0.20761386     0.14420
H1072       H  0.31810644  0.11385025  0.17208250     0.14420
C1073       C  0.38648025  0.07493640  0.16831417     0.36070
C1074       C  0.25327074  0.04435258  0.21136666     0.35980
N1075       N  0.41265109  0.08034122  0.15909411    -0.44270
N1076       N  0.22693054  0.03696064  0.22024497    -0.44270
C1077       C  0.10654270  0.28809094  0.19548815    -0.00680
C1078       C  0.07042873  0.27984527  0.20441495    -0.12550
C1079       C  0.03578754  0.30355166  0.20505968     0.01560
C1080       C  0.03581687  0.33599718  0.19610760    -0.00770
C1081       C  0.07249387  0.34413735  0.18734126    -0.12490
C1082       C  0.10749713  0.32098793  0.18715876     0.01440
H1083       H  0.06936429  0.25478314  0.21101255     0.14420
H1084       H  0.07402941  0.36882490  0.18048531     0.14420
C1085       C  0.14388115  0.33120781  0.17799949     0.36070
C1086       C  0.00107749  0.29397945  0.21521381     0.35980
N1087       N  0.17311508  0.33927155  0.17066852    -0.44270
N1088       N  0.47343434  0.28641658  0.22347838    -0.44270
C1089       C  0.44568749  0.31727396  0.35713540    -0.00680
C1090       C  0.45795647  0.30206550  0.37196271    -0.12550
C1091       C  0.43058630  0.30091496  0.38484844     0.01560
C1092       C  0.39021811  0.31615134  0.38315889    -0.00770
C1093       C  0.37735485  0.33047728  0.36828514    -0.12490
C1094       C  0.40444467  0.33118059  0.35530829     0.01440
H1095       H  0.48966263  0.29185096  0.37372179     0.14420
H1096       H  0.34612851  0.34199881  0.36688255     0.14420
C1097       C  0.38938231  0.34808212  0.34067778     0.36070
C1098       C  0.44670197  0.28742636  0.39998051     0.35980
N1099       N  0.37715594  0.36179092  0.32902424    -0.44270
N1100       N  0.46094776  0.27748681  0.41203913    -0.44270
C1101       C  0.16949461  0.32322471  0.35816919    -0.00680
C1102       C  0.19625365  0.35286604  0.35861376    -0.12550
C1103       C  0.22041733  0.35980896  0.37227216     0.01560
C1104       C  0.21803737  0.33661822  0.38563239    -0.00770
C1105       C  0.19114589  0.30717983  0.38521044    -0.12490
C1106       C  0.16678552  0.30037406  0.37167771     0.01440
H1107       H  0.19773232  0.37095415  0.34839925     0.14420
H1108       H  0.19020412  0.28881312  0.39535608     0.14420
C1109       C  0.14048402  0.26905965  0.37178672     0.36070
C1110       C  0.24892127  0.38967255  0.37199509     0.35980
N1111       N  0.11945036  0.24397149  0.37190644    -0.44270
N1112       N  0.27181502  0.41356556  0.37176791    -0.44270
C1113       C  0.15797565  0.21543709  0.25004239    -0.00680
C1114       C  0.11764550  0.21869743  0.25612165    -0.12550
C1115       C  0.10750278  0.24595030  0.26666380     0.01560
C1116       C  0.13939124  0.26916758  0.27274549    -0.00770
C1117       C  0.18000888  0.26448124  0.26741034    -0.12490
C1118       C  0.18945209  0.23937537  0.25593846     0.01440
H1119       H  0.09266007  0.20249918  0.25111838     0.14420
H1120       H  0.20414128  0.28297948  0.27118035     0.14420
C1121       C  0.23102618  0.24361044  0.24965627     0.36070
C1122       C  0.06317306  0.24971715  0.26945791     0.35980
N1123       N  0.26480889  0.25032674  0.24554929    -0.44270
N1124       N  0.02688359  0.24979229  0.27040544    -0.44270
C1125       C  0.99170501  0.40551689  0.24813974    -0.00680
C1126       C  0.45299311  0.40014445  0.25613771    -0.12550
C1127       C  0.44579846  0.37092641  0.26626673     0.01560
C1128       C  0.47905858  0.34831871  0.27037157    -0.00770
C1129       C  0.01783447  0.35298603  0.26240483    -0.12490
C1130       C  0.02395281  0.38060239  0.25127406     0.01440
H1131       H  0.42723193  0.41774724  0.25460843     0.14420
H1132       H  0.04407657  0.33529305  0.26492349     0.14420
C1133       C  0.06332675  0.38215709  0.24282312     0.36070
C1134       C  0.40363183  0.36362833  0.27170804     0.35980
N1135       N  0.09477310  0.38318686  0.23600057    -0.44270
N1136       N  0.37000166  0.35695958  0.27598165    -0.44270
C1137       C  0.46358163  0.08110844  0.39899776    -0.00680
C1138       C  0.42264489  0.07206836  0.40392521    -0.12550
C1139       C  0.39102230  0.06330288  0.39275549     0.01560
C1140       C  0.40030502  0.06271695  0.37634269    -0.00770
C1141       C  0.44112736  0.07121774  0.37142546    -0.12490
C1142       C  0.47268150  0.08010162  0.38246890     0.01440
H1143       H  0.41510680  0.07246086  0.41651262     0.14420
H1144       H  0.44820564  0.07147547  0.35877748     0.14420
C1145       C  0.01428769  0.08695587  0.37636098     0.36070
C1146       C  0.34869958  0.05723654  0.39826147     0.35980
N1147       N  0.04751619  0.09228562  0.37133942    -0.44270
N1148       N  0.31465093  0.05264045  0.40259718    -0.44270
C1149       C  0.20841820  0.05898394  0.37084769    -0.00680
C1150       C  0.18375565  0.02886305  0.37470799    -0.12550
C1151       C  0.14862690  0.03154197  0.38474209     0.01560
C1152       C  0.13814073  0.06468139  0.39115313    -0.00770
C1153       C  0.16035824  0.09497858  0.38611093    -0.12490
C1154       C  0.19491837  0.09263324  0.37616599     0.01440
H1155       H  0.19254777  0.00302883  0.37028790     0.14420
H1156       H  0.15153694  0.12088489  0.39050733     0.14420
C1157       C  0.21559279  0.12560511  0.37183058     0.36070
C1158       C  0.12492239  0.99999503  0.38867736     0.35980
N1159       N  0.23198434  0.15207664  0.36840463    -0.44270
N1160       N  0.10557019  0.47475326  0.39166263    -0.44270
C1161       C  0.24702585  0.14035745  0.24540645    -0.00680
C1162       C  0.22293889  0.10832679  0.24568017    -0.12550
C1163       C  0.22474416  0.08358028  0.25864611     0.01560
C1164       C  0.24976167  0.09082509  0.27210001    -0.00770
C1165       C  0.26877767  0.12503404  0.27257208    -0.12490
C1166       C  0.26982916  0.14849057  0.25929134     0.01440
H1167       H  0.20374855  0.10174537  0.23537192     0.14420
H1168       H  0.28607996  0.13296435  0.28300087     0.14420
C1169       C  0.29979430  0.17723190  0.25953281     0.36070
C1170       C  0.19924411  0.05198209  0.25822124     0.35980
N1171       N  0.32515119  0.19926227  0.25990286    -0.44270
N1172       N  0.17821924  0.02690834  0.25801015    -0.44270
C1173       C  0.46146038  0.21206571  0.31653608    -0.00680
C1174       C  0.45021891  0.19172261  0.30338525    -0.12550
C1175       C  0.42604038  0.16128016  0.30521643     0.01560
C1176       C  0.41218563  0.15110794  0.32058051    -0.00770
C1177       C  0.42526407  0.17065322  0.33388616    -0.12490
C1178       C  0.45039413  0.20079340  0.33198018     0.01440
H1179       H  0.45987535  0.20012521  0.29150234     0.14420
H1180       H  0.41538630  0.16253451  0.34576261     0.14420
C1181       C  0.46659592  0.21803165  0.34596829     0.36070
C1182       C  0.41491335  0.14285801  0.29084577     0.35980
N1183       N  0.48034272  0.23080166  0.35733732    -0.44270
N1184       N  0.40808688  0.12977814  0.27870220    -0.44270
C1185       C  0.14519984  0.41468981  0.31359230    -0.00680
C1186       C  0.13253349  0.45012224  0.31523163    -0.12550
C1187       C  0.16255637  0.47714255  0.31721631     0.01560
C1188       C  0.20577427  0.46825226  0.31849314    -0.00770
C1189       C  0.21815818  0.43330456  0.31602689    -0.12490
C1190       C  0.18873347  0.40679264  0.31343795     0.01440
H1191       H  0.09921624  0.45650507  0.31542206     0.14420
H1192       H  0.25140708  0.42641145  0.31642138     0.14420
C1193       C  0.20556520  0.37161356  0.31211850     0.36070
C1194       C  0.14780344  0.01318052  0.31820658     0.35980
N1195       N  0.22247507  0.34448934  0.31159031    -0.44270
N1196       N  0.13465167  0.04181359  0.31856807    -0.44270
C1197       C  0.22602564  0.15980779  0.31646252    -0.00680
C1198       C  0.23571949  0.19235654  0.30937006    -0.12550
C1199       C  0.20594108  0.21956092  0.30849160     0.01560
C1200       C  0.16388819  0.21340267  0.31339361    -0.00770
C1201       C  0.15338921  0.18003621  0.31970691    -0.12490
C1202       C  0.18434426  0.15375954  0.32190160     0.01440
H1203       H  0.26779452  0.19754940  0.30563974     0.14420
H1204       H  0.12156372  0.17521599  0.32377555     0.14420
C1205       C  0.17279665  0.12201286  0.33070401     0.36070
C1206       C  0.22170551  0.25346498  0.30325135     0.35980
N1207       N  0.16351130  0.09727960  0.33826480    -0.44270
N1208       N  0.23870160  0.27904211  0.29905657    -0.44270
C1209       C  0.40075374  0.46398309  0.31675066    -0.00680
C1210       C  0.43559859  0.46875617  0.32720651    -0.12550
C1211       C  0.47183767  0.44752345  0.32659982     0.01560
C1212       C  0.47467928  0.42040708  0.31527977    -0.00770
C1213       C  0.44200890  0.41806272  0.30376513    -0.12490
C1214       C  0.40539713  0.43955497  0.30434583     0.01440
H1215       H  0.43426404  0.48862143  0.33640051     0.14420
H1216       H  0.44390464  0.39789423  0.29493136     0.14420
C1217       C  0.37249236  0.43526952  0.29254180     0.36070
C1218       C  0.50528175  0.45362674  0.33808689     0.35980
N1219       N  0.34579575  0.43262357  0.28311136    -0.44270
N1220       N  0.03206120  0.45848259  0.34728490    -0.44270
C1221       C  0.36973439  0.03828556  0.27059836    -0.00680
C1222       C  0.40227419  0.01359376  0.27284872    -0.12550
C1223       C  0.41296512  0.48928357  0.26098098     0.01560
C1224       C  0.38466678  0.48223438  0.24788673    -0.00770
C1225       C  0.35059165  0.50618366  0.24623296    -0.12490
C1226       C  0.34590882  0.03565647  0.25632344     0.01440
H1227       H  0.42217356  0.01566491  0.28343534     0.14420
H1228       H  0.33150071  0.50532242  0.23543785     0.14420
C1229       C  0.32677802  0.06647088  0.24912226     0.36070
C1230       C  0.45659678  0.47912548  0.26173726     0.35980
N1231       N  0.31501050  0.09073353  0.24170077    -0.44270
N1232       N  0.49229933  0.47399858  0.26356498    -0.44270
O1233       O  0.35411619  0.54144919  0.29809963    -0.80660
O1234       O  0.36101413  0.58797025  0.35548750    -0.80690
O1235       O  0.37803320  0.59644399  0.31529672    -0.80690
O1236       O  0.35949271  0.99741165  0.33398178    -0.80640
O1237       O  0.34819499  0.63305342  0.33153183    -0.80760
O1238       O  0.32923650  0.98819600  0.31041785    -0.80680
O1239       O  0.34500749  0.53255439  0.36211044    -0.80660
O1240       O  0.33968437  0.58958435  0.28529118    -0.80700
C1241       C  0.35583331  0.55858581  0.28498994     1.09030
C1242       C  0.36696724  0.56050836  0.36391381     1.08910
C1243       C  0.37894039  0.62479348  0.32292722     1.09050
C1244       C  0.36080642  0.98404136  0.32025906     1.08930
O1245       O  0.24022798  0.02377582  0.31610853    -0.80660
O1246       O  0.25917291  0.61748866  0.33299043    -0.80740
O1247       O  0.26164293  0.57888711  0.29959265    -0.80680
O1248       O  0.25517999  0.52664119  0.35435662    -0.80660
O1249       O  0.27296694  0.58084911  0.36066201    -0.80710
O1250       O  0.27320613  0.53350855  0.28537452    -0.80670
O1251       O  0.27163024  0.98304767  0.33028181    -0.80630
O1252       O  0.29307764  0.63193670  0.31109004    -0.80700
Co1253     Co  0.29674514  0.53591604  0.30803377     1.51530
Co1254     Co  0.30986532  0.60153031  0.34398607     1.51690
Co1255     Co  0.32095878  0.58364279  0.30812655     1.51570
Co1256     Co  0.30845891  0.51316324  0.34415815     1.51470
O1257       O  0.31094626  0.55814964  0.32959157    -1.42600
C1258       C  0.23956785  0.99351862  0.32238658     1.08950
C1259       C  0.26100339  0.63504377  0.32013983     1.09040
C1260       C  0.25811090  0.56518966  0.28604116     1.08980
C1261       C  0.24742330  0.55523741  0.36128813     1.08960
O1262       O  0.51604395  0.87080768  0.30609878    -0.80660
O1263       O  0.15942302  0.80943773  0.29432076    -0.80690
O1264       O  0.10228071  0.87846205  0.32968970    -0.80690
O1265       O  0.01204547  0.80683415  0.28720567    -0.80640
O1266       O  0.10630191  0.86494006  0.30444754    -0.80760
O1267       O  0.45316255  0.82919915  0.29638638    -0.80680
O1268       O  0.09488914  0.80833130  0.28694648    -0.80660
O1269       O  0.01717756  0.88094476  0.33133696    -0.80700
C1270       C  0.50625603  0.89078870  0.31736923     1.09030
C1271       C  0.13185330  0.79831555  0.28433986     1.08910
C1272       C  0.11415771  0.88600964  0.31561723     1.09050
C1273       C  0.47869555  0.82508598  0.28487192     1.08930
O1274       O  0.47518880  0.77380803  0.31693349    -0.80660
O1275       O  0.15187998  0.82767184  0.33033491    -0.80740
O1276       O  0.01582685  0.81385103  0.34793661    -0.80680
O1277       O  0.10050157  0.73910069  0.30292448    -0.80660
O1278       O  0.13606830  0.76923401  0.31978131    -0.80710
O1279       O  0.46751618  0.83123389  0.33043537    -0.80670
O1280       O  0.01922194  0.73924703  0.30540158    -0.80630
O1281       O  0.10277160  0.81169068  0.34720579    -0.80700
Co1282     Co  0.50023119  0.82047061  0.31074089     1.51530
Co1283     Co  0.11640726  0.81512361  0.31110907     1.51690
Co1284     Co  0.05952405  0.84325677  0.33789530     1.51570
Co1285     Co  0.05615485  0.77582854  0.29759564     1.51470
O1286       O  0.05758878  0.80761785  0.31922690    -1.42600
C1287       C  0.48691984  0.74332554  0.31325994     1.08950
C1288       C  0.14065243  0.81955072  0.34449372     1.09040
C1289       C  0.47761076  0.82034657  0.34446003     1.08980
C1290       C  0.13137942  0.74142605  0.31227979     1.08960
O1291       O  0.48586565  0.95879986  0.23039532    -0.80660
O1292       O  0.46865529  0.89104021  0.15748613    -0.80690
O1293       O  0.46479577  0.85735850  0.20281642    -0.80690
O1294       O  0.47552446  0.50445895  0.17679137    -0.80640
O1295       O  0.50233889  0.89041447  0.18740258    -0.80760
O1296       O  0.51071534  0.48796703  0.19862282    -0.80680
O1297       O  0.49359469  0.94169100  0.16562444    -0.80660
O1298       O  0.48896577  0.90682980  0.22091061    -0.80700
C1299       C  0.99179724  0.92561713  0.23259161     1.09030
C1300       C  0.99700196  0.91478814  0.15649575     1.08910
C1301       C  0.49930855  0.86217017  0.19552018     1.09050
C1302       C  0.00734192  0.50716845  0.18610120     1.08930
O1303       O  0.42578097  0.51981606  0.19670561    -0.80660
O1304       O  0.41206484  0.86851781  0.18191317    -0.80740
O1305       O  0.40368004  0.93096139  0.23028360    -0.80680
O1306       O  0.42163485  0.97385270  0.15357648    -0.80660
O1307       O  0.39511190  0.92669458  0.16539802    -0.80710
O1308       O  0.40672608  0.98618066  0.22180578    -0.80670
O1309       O  0.38677226  0.48400418  0.18283418    -0.80630
O1310       O  0.37892923  0.88694092  0.20327668    -0.80700
Co1311     Co  0.45842161  0.98442765  0.21060336     1.51530
Co1312     Co  0.44969037  0.91067064  0.17751875     1.51690
Co1313     Co  0.43300467  0.89831982  0.21332993     1.51570
Co1314     Co  0.43877068  0.96104613  0.17525383     1.51470
O1315       O  0.44261654  0.93942485  0.19753735    -1.42600
C1316       C  0.39090973  0.51281378  0.18992342     1.08950
C1317       C  0.37979855  0.86801772  0.19087731     1.09040
C1318       C  0.39820529  0.96457491  0.23258203     1.08980
C1319       C  0.39273005  0.95057250  0.15421209     1.08960
O1320       O  0.24594481  0.69472218  0.22823005    -0.80660
O1321       O  0.21278013  0.64574838  0.15404369    -0.80690
O1322       O  0.21455689  0.60268149  0.19723744    -0.80690
O1323       O  0.22394432  0.75556264  0.17821918    -0.80640
O1324       O  0.25132653  0.63889164  0.18293388    -0.80760
O1325       O  0.26305429  0.73439506  0.19819229    -0.80680
O1326       O  0.23866084  0.69544032  0.16318063    -0.80660
O1327       O  0.24459496  0.64392314  0.21774613    -0.80700
C1328       C  0.24970344  0.66115259  0.22982175     1.09030
C1329       C  0.24063603  0.66983404  0.15318574     1.08910
C1330       C  0.24842225  0.60926223  0.18997761     1.09050
C1331       C  0.25716824  0.75676567  0.18692035     1.08930
O1332       O  0.17755057  0.76580208  0.20047142    -0.80660
O1333       O  0.16060889  0.61937139  0.17849439    -0.80740
O1334       O  0.16474325  0.66654872  0.23084646    -0.80680
O1335       O  0.16487526  0.73082867  0.15522965    -0.80660
O1336       O  0.14224831  0.67991643  0.16478263    -0.80710
O1337       O  0.16276858  0.72183979  0.22290281    -0.80670
O1338       O  0.13571731  0.73417227  0.18574417    -0.80630
O1339       O  0.13113492  0.63212147  0.20165128    -0.80700
Co1340     Co  0.21317904  0.72603875  0.21110237     1.51530
Co1341     Co  0.19810355  0.66151196  0.17510291     1.51690
Co1342     Co  0.18722826  0.63983708  0.21084298     1.51570
Co1343     Co  0.18619677  0.71273684  0.17560128     1.51470
O1344       O  0.19481778  0.68501548  0.19649634    -1.42600
C1345       C  0.14135113  0.76124233  0.19409810     1.08950
C1346       C  0.13098119  0.61566146  0.18852190     1.09040
C1347       C  0.16113681  0.69970250  0.23390254     1.08980
C1348       C  0.13781409  0.70601791  0.15473877     1.08960
O1349       O  0.46466280  0.72682444  0.11077483    -0.80660
O1350       O  0.47212342  0.66829526  0.03544083    -0.80690
O1351       O  0.46965876  0.61623462  0.08755493    -0.80690
O1352       O  0.46223391  0.76513084  0.06630135    -0.80640
O1353       O  0.49901579  0.63006972  0.06431298    -0.80760
O1354       O  0.49888493  0.72912778  0.08125061    -0.80680
O1355       O  0.48628095  0.71586461  0.04758127    -0.80660
O1356       O  0.48759103  0.67594162  0.10206559    -0.80700
C1357       C  0.49155780  0.70179950  0.11184657     1.09030
C1358       C  0.48708216  0.69978275  0.03503489     1.08910
C1359       C  0.49997939  0.61359121  0.07764641     1.09050
C1360       C  0.49611751  0.75816481  0.07375833     1.08930
O1361       O  0.40932308  0.75336468  0.08622913    -0.80660
O1362       O  0.41457081  0.60312147  0.06791102    -0.80740
O1363       O  0.41418507  0.64346270  0.11193659    -0.80680
O1364       O  0.40039981  0.70030244  0.03545607    -0.80660
O1365       O  0.38770910  0.65149405  0.04786894    -0.80710
O1366       O  0.39097504  0.69394822  0.10157672    -0.80670
O1367       O  0.37663162  0.74037989  0.06339749    -0.80630
O1368       O  0.37888757  0.63853644  0.08258154    -0.80700
Co1369     Co  0.44552005  0.70981972  0.09022500     1.51530
Co1370     Co  0.44435328  0.64120959  0.05492896     1.51690
Co1371     Co  0.43234056  0.65916673  0.09092241     1.51570
Co1372     Co  0.43034585  0.72743900  0.05422852     1.51470
O1373       O  0.43749700  0.68433376  0.06955013    -1.42600
C1374       C  0.37871575  0.75739898  0.07628976     1.08950
C1375       C  0.38125213  0.60974339  0.07539623     1.09040
C1376       C  0.38733624  0.66872115  0.11207362     1.08980
C1377       C  0.38576200  0.66864454  0.03526716     1.08960
O1378       O  0.17055518  0.88960694  0.11378339    -0.80660
O1379       O  0.14215005  0.95144072  0.03867720    -0.80690
O1380       O  0.15519865  0.50088814  0.09055300    -0.80690
O1381       O  0.16761748  0.85347881  0.06941382    -0.80640
O1382       O  0.11959235  0.48520143  0.06886198    -0.80760
O1383       O  0.13196536  0.88677022  0.08483181    -0.80680
O1384       O  0.13666350  0.90118485  0.05043870    -0.80660
O1385       O  0.14249307  0.93927570  0.10465065    -0.80700
C1386       C  0.14235415  0.91347192  0.11492421     1.09030
C1387       C  0.13135060  0.91883167  0.03814202     1.08910
C1388       C  0.12265369  0.50310082  0.08148010     1.09050
C1389       C  0.13422341  0.85871365  0.07709154     1.08930
O1390       O  0.22337231  0.86659560  0.08834494    -0.80660
O1391       O  0.20375981  0.51746719  0.06937517    -0.80740
O1392       O  0.21450884  0.97371273  0.11380026    -0.80680
O1393       O  0.21874960  0.92301713  0.03729383    -0.80660
O1394       O  0.22631459  0.97481911  0.04774339    -0.80710
O1395       O  0.24106747  0.92610572  0.10300032    -0.80670
O1396       O  0.25063118  0.88309631  0.06506058    -0.80630
O1397       O  0.24450538  0.48318624  0.08373241    -0.80700
Co1398     Co  0.18537659  0.90819902  0.09271610     1.51530
Co1399     Co  0.17220237  0.97885874  0.05736134     1.51690
Co1400     Co  0.19454555  0.95904912  0.09297842     1.51570
Co1401     Co  0.19449712  0.89324146  0.05655028     1.51470
O1402       O  0.18762553  0.93525907  0.07168296    -1.42600
C1403       C  0.25236466  0.86473346  0.07792426     1.08950
C1404       C  0.23908740  0.51221281  0.07630583     1.09040
C1405       C  0.24367329  0.95052433  0.11350704     1.08980
C1406       C  0.22898798  0.95586564  0.03597369     1.08960
O1407       O  0.01685077  0.77703659  0.96762789    -0.80660
O1408       O  0.01702046  0.82255132  0.91368883    -0.80690
O1409       O  0.00132439  0.86830184  0.95069283    -0.80690
O1410       O  0.00860373  0.76622428  0.93362925    -0.80640
O1411       O  0.03456831  0.88306892  0.92836246    -0.80760
O1412       O  0.04781807  0.73159672  0.94817203    -0.80680
O1413       O  0.04241663  0.77273441  0.90432595    -0.80660
O1414       O  0.02451212  0.82697894  0.97928587    -0.80700
C1415       C  0.01143059  0.79470389  0.97961607     1.09030
C1416       C  0.01420093  0.79692489  0.90370345     1.08910
C1417       C  0.00366283  0.88628977  0.93779708     1.09050
C1418       C  0.01334038  0.73703237  0.94085364     1.08930
O1419       O  0.12936326  0.76443328  0.95236613    -0.80660
O1420       O  0.12391782  0.86026003  0.93437394    -0.80740
O1421       O  0.11086321  0.84669781  0.96918721    -0.80680
O1422       O  0.11422779  0.80832888  0.91406563    -0.80660
O1423       O  0.08857607  0.85856954  0.90465017    -0.80710
O1424       O  0.09869212  0.79752100  0.98108480    -0.80670
O1425       O  0.10133341  0.74838223  0.92920494    -0.80630
O1426       O  0.08711848  0.89483529  0.94899606    -0.80700
Co1427     Co  0.07408455  0.77085286  0.96121117     1.51530
Co1428     Co  0.07102100  0.84010428  0.92522916     1.51690
Co1429     Co  0.05502636  0.85632268  0.96103884     1.51570
Co1430     Co  0.06036060  0.78917588  0.92514536     1.51470
O1431       O  0.06451047  0.81418528  0.94621598    -1.42600
C1432       C  0.13153849  0.74728457  0.93952888     1.08950
C1433       C  0.12132646  0.88847525  0.94198545     1.09040
C1434       C  0.11204340  0.82940392  0.98173339     1.08980
C1435       C  0.11712645  0.83500459  0.90426378     1.08960
O1436       O  0.36671915  0.59462078  0.96677327    -0.80660
O1437       O  0.36221608  0.55873578  0.91246898    -0.80690
O1438       O  0.38094554  0.51153342  0.94903812    -0.80690
O1439       O  0.37386550  0.61133562  0.93229679    -0.80640
O1440       O  0.34732858  0.49734920  0.92667844    -0.80760
O1441       O  0.33887561  0.64425548  0.94818420    -0.80680
O1442       O  0.33474702  0.60852385  0.90310886    -0.80660
O1443       O  0.35705201  0.54542442  0.97884860    -0.80700
C1444       C  0.36931603  0.57763720  0.97932933     1.09030
C1445       C  0.36363027  0.58515854  0.90249849     1.08910
C1446       C  0.37927023  0.99465731  0.93608382     1.09050
C1447       C  0.37203550  0.63901769  0.94041637     1.08930
O1448       O  0.25481648  0.61704984  0.95131257    -0.80660
O1449       O  0.25748106  0.51745010  0.93324284    -0.80740
O1450       O  0.27275826  0.52488765  0.96828660    -0.80680
O1451       O  0.26359898  0.57363408  0.91390261    -0.80660
O1452       O  0.28800850  0.52507732  0.90331900    -0.80710
O1453       O  0.28256863  0.57555073  0.97933320    -0.80670
O1454       O  0.28388664  0.63371481  0.92839323    -0.80630
O1455       O  0.29686608  0.48143015  0.94703778    -0.80700
Co1456     Co  0.30963638  0.60495907  0.96041799     1.51530
Co1457     Co  0.30884233  0.53985604  0.92401095     1.51690
Co1458     Co  0.32785917  0.51910939  0.95965524     1.51570
Co1459     Co  0.31964666  0.59057757  0.92418927     1.51470
O1460       O  0.31631965  0.56343211  0.94521492    -1.42600
C1461       C  0.25594563  0.63742508  0.93908486     1.08950
C1462       C  0.26148065  0.98821854  0.94053753     1.09040
C1463       C  0.27050885  0.54309373  0.98026211     1.08980
C1464       C  0.25890476  0.54840020  0.90385099     1.08960
O1465       O  0.07494869  0.55345423  0.40679105    -0.80660
O1466       O  0.10987277  0.62461433  0.46822890    -0.80690
O1467       O  0.12322770  0.64608147  0.43350301    -0.80690
O1468       O  0.12809711  0.53287866  0.45430537    -0.80640
O1469       O  0.08047930  0.67299295  0.44900231    -0.80760
O1470       O  0.10353182  0.52107922  0.43086594    -0.80680
O1471       O  0.09738155  0.57283108  0.47845614    -0.80660
O1472       O  0.12019753  0.59215018  0.41476934    -0.80700
C1473       C  0.10969124  0.56946048  0.40480996     1.09030
C1474       C  0.11310236  0.60370651  0.47971207     1.08910
C1475       C  0.11609618  0.67126242  0.44259419     1.09050
C1476       C  0.13234627  0.51828020  0.44123636     1.08930
O1477       O  0.02444297  0.50650734  0.42174660    -0.80660
O1478       O  0.00022997  0.63483945  0.44853434    -0.80740
O1479       O  0.03005181  0.60530224  0.40763720    -0.80680
O1480       O  0.01377929  0.55828315  0.46311477    -0.80660
O1481       O  0.02618559  0.60200499  0.47751448    -0.80710
O1482       O  0.99589825  0.57279800  0.42463545    -0.80670
O1483       O  0.03660264  0.50733394  0.44775698    -0.80630
O1484       O  0.03166542  0.65916876  0.42770586    -0.80700
Co1485     Co  0.04965965  0.54858292  0.42915240     1.51530
Co1486     Co  0.05417752  0.62898252  0.45883788     1.51690
Co1487     Co  0.07649813  0.62334904  0.42230089     1.51570
Co1488     Co  0.07115535  0.54725589  0.45896740     1.51470
O1489       O  0.07021660  0.58989713  0.44208039    -1.42600
C1490       C  0.01839370  0.49355947  0.43551263     1.08950
C1491       C  0.00070427  0.65696413  0.43717618     1.09040
C1492       C  0.99696906  0.58820548  0.41122920     1.08980
C1493       C  0.01112894  0.57133004  0.47631167     1.08960
O1494       O  0.35827071  0.79626908  0.40716402    -0.80660
O1495       O  0.30572735  0.88436912  0.47207759    -0.80690
O1496       O  0.36981831  0.88456076  0.42149185    -0.80690
O1497       O  0.37658835  0.78898674  0.44785361    -0.80640
O1498       O  0.34609200  0.89985288  0.44466824    -0.80760
O1499       O  0.33814831  0.75586781  0.43222882    -0.80680
O1500       O  0.36203070  0.85413604  0.46539828    -0.80660
O1501       O  0.33930859  0.84800463  0.39703016    -0.80700
C1502       C  0.36177030  0.82035994  0.39669649     1.09030
C1503       C  0.34406284  0.87731847  0.47462569     1.08910
C1504       C  0.37587076  0.89917638  0.43452418     1.09050
C1505       C  0.37263594  0.76215195  0.43914950     1.08930
O1506       O  0.25142234  0.78117445  0.42877090    -0.80660
O1507       O  0.25297708  0.88370422  0.44594785    -0.80740
O1508       O  0.25633517  0.86511824  0.40631153    -0.80680
O1509       O  0.32840713  0.79539851  0.47545584    -0.80660
O1510       O  0.27043535  0.82280457  0.46695666    -0.80710
O1511       O  0.27125195  0.80975729  0.40064104    -0.80670
O1512       O  0.28650053  0.77018959  0.45072172    -0.80630
O1513       O  0.28681675  0.91296882  0.42727329    -0.80700
Co1514     Co  0.30493775  0.78906505  0.41843453     1.51530
Co1515     Co  0.30505803  0.85974483  0.45265020     1.51690
Co1516     Co  0.31323334  0.87465183  0.41462953     1.51570
Co1517     Co  0.32553424  0.81387238  0.45433749     1.51470
O1518       O  0.31225087  0.83393731  0.43177251    -1.42600
C1519       C  0.25303313  0.76764419  0.44243783     1.08950
C1520       C  0.25597268  0.90985392  0.43650655     1.09040
C1521       C  0.24941955  0.83742405  0.39851323     1.08980
C1522       C  0.28962434  0.80166608  0.47741523     1.08960
O1523       O  0.39318628  0.98347458  0.53437839    -0.80660
O1524       O  0.41778797  0.91797671  0.60874391    -0.80690
O1525       O  0.41305159  0.88137697  0.56417131    -0.80690
O1526       O  0.40982288  0.52993378  0.58593125    -0.80640
O1527       O  0.37902991  0.91538872  0.57977286    -0.80760
O1528       O  0.37404803  0.51785554  0.56389836    -0.80680
O1529       O  0.39135281  0.96801203  0.59948978    -0.80660
O1530       O  0.38449982  0.93084945  0.54430635    -0.80700
C1531       C  0.38144899  0.95142652  0.53262622     1.09030
C1532       C  0.38930851  0.94177048  0.60953079     1.08910
C1533       C  0.38021051  0.88719396  0.57205929     1.09050
C1534       C  0.37687471  0.53325654  0.57714424     1.08930
O1535       O  0.46094360  0.54371471  0.56496176    -0.80660
O1536       O  0.47002282  0.89243767  0.58336581    -0.80740
O1537       O  0.46678890  0.94861069  0.53230334    -0.80680
O1538       O  0.46554565  0.99915723  0.60912020    -0.80660
O1539       O  0.49024125  0.95118847  0.59813131    -0.80710
O1540       O  0.47938570  0.49850604  0.54352534    -0.80670
O1541       O  0.49771343  0.50635039  0.57921343    -0.80630
O1542       O  0.49693875  0.90914140  0.56014302    -0.80700
Co1543     Co  0.42601596  0.50768533  0.55287639     1.51530
Co1544     Co  0.43359713  0.93537615  0.58773985     1.51690
Co1545     Co  0.44139761  0.92047887  0.55141472     1.51570
Co1546     Co  0.44518879  0.48551515  0.58818204     1.51470
O1547       O  0.43633731  0.96262569  0.56677645    -1.42600
C1548       C  0.49539613  0.53558451  0.57186970     1.08950
C1549       C  0.49903869  0.89059291  0.57293094     1.09040
C1550       C  0.47796340  0.98101572  0.53127260     1.08980
C1551       C  0.49399894  0.97543363  0.60868286     1.08960
O1552       O  0.22904212  0.69053945  0.53618087    -0.80660
O1553       O  0.21108199  0.75338487  0.61049924    -0.80690
O1554       O  0.20856359  0.79029075  0.56511680    -0.80690
O1555       O  0.22155394  0.64317412  0.58904457    -0.80640
O1556       O  0.24621260  0.75692849  0.58094038    -0.80760
O1557       O  0.25502632  0.65818560  0.56684743    -0.80680
O1558       O  0.23729714  0.70418756  0.60137547    -0.80660
O1559       O  0.23431019  0.74378650  0.54510358    -0.80700
C1560       C  0.23861872  0.72314423  0.53392790     1.09030
C1561       C  0.23893252  0.72901611  0.61162283     1.08910
C1562       C  0.24277094  0.78484525  0.57263334     1.09050
C1563       C  0.25331449  0.64091772  0.57996732     1.08930
O1564       O  0.17114730  0.62693387  0.56860393    -0.80660
O1565       O  0.15542289  0.77878065  0.58515578    -0.80740
O1566       O  0.15066134  0.72195283  0.53544774    -0.80680
O1567       O  0.16606280  0.67129248  0.61206482    -0.80660
O1568       O  0.13833813  0.71865813  0.60042086    -0.80710
O1569       O  0.14607160  0.66815652  0.54550982    -0.80670
O1570       O  0.13202043  0.66135941  0.58263613    -0.80630
O1571       O  0.12459816  0.75984018  0.56310850    -0.80700
Co1572     Co  0.20114190  0.66458878  0.55545973     1.51530
Co1573     Co  0.19322325  0.73604236  0.58962846     1.51690
Co1574     Co  0.17872317  0.75086700  0.55336029     1.51570
Co1575     Co  0.18335820  0.68537620  0.59078534     1.51470
O1576       O  0.18848431  0.70881329  0.56896545    -1.42600
C1577       C  0.13689162  0.63238048  0.57575171     1.08950
C1578       C  0.12547877  0.78058408  0.57480103     1.09040
C1579       C  0.13923257  0.68958681  0.53433614     1.08980
C1580       C  0.13648735  0.69411443  0.61128416     1.08960
O1581       O  0.41572821  0.74977898  0.65298507    -0.80660
O1582       O  0.40535652  0.69174246  0.72831482    -0.80690
O1583       O  0.41098422  0.63807345  0.67765415    -0.80690
O1584       O  0.42292075  0.78881332  0.69627462    -0.80640
O1585       O  0.38072057  0.65303502  0.70016584    -0.80760
O1586       O  0.38375592  0.75397489  0.68260656    -0.80680
O1587       O  0.39635514  0.74294549  0.71688503    -0.80660
O1588       O  0.39142687  0.69957723  0.66297354    -0.80700
C1589       C  0.38737547  0.72588210  0.65297084     1.09030
C1590       C  0.39387520  0.72431517  0.72901687     1.08910
C1591       C  0.38042828  0.63549503  0.68740861     1.09050
C1592       C  0.38792098  0.78299797  0.68953269     1.08930
O1593       O  0.47442862  0.77432044  0.67665800    -0.80660
O1594       O  0.46666166  0.62586205  0.69813722    -0.80740
O1595       O  0.46334246  0.66602485  0.65275017    -0.80680
O1596       O  0.47942946  0.72284423  0.72901268    -0.80660
O1597       O  0.49048568  0.67428044  0.71734993    -0.80710
O1598       O  0.48936633  0.71516511  0.66248569    -0.80670
O1599       O  0.50652117  0.75896235  0.69947969    -0.80630
O1600       O  0.50080551  0.66066242  0.68214473    -0.80700
Co1601     Co  0.43554767  0.73253793  0.67369253     1.51530
Co1602     Co  0.43476031  0.66395844  0.70991588     1.51690
Co1603     Co  0.44691637  0.68168896  0.67375773     1.51570
Co1604     Co  0.45238931  0.75012850  0.70927438     1.51470
O1605       O  0.44270706  0.70684237  0.69479678    -1.42600
C1606       C  0.50568374  0.77649898  0.68638092     1.08950
C1607       C  0.49987979  0.63264848  0.69044695     1.09040
C1608       C  0.49173502  0.68983416  0.65246389     1.08980
C1609       C  0.49048404  0.69033281  0.72992407     1.08960
O1610       O  0.11100889  0.57420053  0.85250759    -0.80660
O1611       O  0.10225944  0.53588185  0.79460346    -0.80690
O1612       O  0.11688157  0.02329751  0.83136822    -0.80690
O1613       O  0.12540705  0.62338300  0.81547690    -0.80640
O1614       O  0.07778217  0.99130449  0.81598265    -0.80760
O1615       O  0.09656579  0.63729050  0.83853969    -0.80680
O1616       O  0.09637070  0.59062474  0.78609978    -0.80660
O1617       O  0.08263589  0.52426437  0.86093562    -0.80700
C1618       C  0.11186351  0.54703436  0.86212306     1.09030
C1619       C  0.10835624  0.55845440  0.78397286     1.08910
C1620       C  0.11258389  0.99587880  0.82323723     1.09050
C1621       C  0.12580635  0.64091857  0.82826043     1.08930
O1622       O  0.00479223  0.61910621  0.83304077    -0.80660
O1623       O  0.99391616  0.02451903  0.81459906    -0.80740
O1624       O  0.01182842  0.56314478  0.85178254    -0.80680
O1625       O  0.01315836  0.61139152  0.79837825    -0.80660
O1626       O  0.01908630  0.56284307  0.78576753    -0.80710
O1627       O  0.04092208  0.60987070  0.86255487    -0.80670
O1628       O  0.04253873  0.65483130  0.81894835    -0.80630
O1629       O  0.02688070  0.00420954  0.83638411    -0.80700
Co1630     Co  0.05736103  0.59525586  0.84138528     1.51530
Co1631     Co  0.04751244  0.53177778  0.80402067     1.51690
Co1632     Co  0.06557966  0.54491302  0.84048638     1.51570
Co1633     Co  0.07029078  0.61684242  0.80566423     1.51470
O1634       O  0.06127642  0.57245177  0.81965287    -1.42600
C1635       C  0.00828107  0.64861096  0.82600735     1.08950
C1636       C  0.99543251  0.00435795  0.82682182     1.09040
C1637       C  0.01095230  0.58751558  0.86236495     1.08980
C1638       C  0.00786290  0.59548029  0.78587324     1.08960
O1639       O  0.21590925  0.91305915  0.65232473    -0.80660
O1640       O  0.23219278  0.97043962  0.72759624    -0.80690
O1641       O  0.22613408  0.52344729  0.67473789    -0.80690
O1642       O  0.21310389  0.87496411  0.69644884    -0.80640
O1643       O  0.25788462  0.50439161  0.69704415    -0.80760
O1644       O  0.25049793  0.91052633  0.68207494    -0.80680
O1645       O  0.23990438  0.92175850  0.71569178    -0.80660
O1646       O  0.24180620  0.96276673  0.66118514    -0.80700
C1647       C  0.24383149  0.93707910  0.65133389     1.09030
C1648       C  0.24334301  0.93779816  0.72818661     1.08910
C1649       C  0.25648030  0.52494579  0.68487684     1.09050
C1650       C  0.24702128  0.88125787  0.68924506     1.08930
O1651       O  0.16011898  0.88839970  0.67647560    -0.80660
O1652       O  0.17473970  0.53785012  0.69510393    -0.80740
O1653       O  0.16978103  0.99608095  0.65024822    -0.80680
O1654       O  0.15497621  0.94202706  0.72705045    -0.80660
O1655       O  0.14983717  0.99643626  0.71768112    -0.80710
O1656       O  0.14301055  0.94806507  0.66136734    -0.80670
O1657       O  0.12852936  0.90245522  0.69908466    -0.80630
O1658       O  0.13613935  0.50568920  0.67944113    -0.80700
Co1659     Co  0.19754775  0.93095114  0.67281740     1.51530
Co1660     Co  0.20453935  0.99893222  0.70813056     1.51690
Co1661     Co  0.18749623  0.98155343  0.67166844     1.51570
Co1662     Co  0.18311492  0.91345337  0.70859457     1.51470
O1663       O  0.19028307  0.95666935  0.69351721    -1.42600
C1664       C  0.12995767  0.88489574  0.68633278     1.08950
C1665       C  0.14070878  0.53363216  0.68723176     1.09040
C1666       C  0.14075419  0.97271631  0.65056463     1.08980
C1667       C  0.14287182  0.97446512  0.72852136     1.08960
O1668       O  0.26425025  0.81460912  0.85273253    -0.80660
O1669       O  0.26303169  0.85955153  0.79752639    -0.80690
O1670       O  0.25293219  0.87015378  0.83255028    -0.80690
O1671       O  0.24706310  0.77466771  0.81505624    -0.80640
O1672       O  0.28990560  0.90510204  0.81764327    -0.80760
O1673       O  0.27737328  0.75520243  0.83745127    -0.80680
O1674       O  0.27366357  0.81081567  0.78575784    -0.80660
O1675       O  0.28946062  0.86458433  0.86198445    -0.80700
C1676       C  0.26239397  0.83981338  0.86289203     1.09030
C1677       C  0.26152886  0.84326819  0.78500329     1.08910
C1678       C  0.25574969  0.89886659  0.82476019     1.09050
C1679       C  0.24691690  0.75436729  0.82721576     1.08930
O1680       O  0.36939592  0.77572067  0.83231123    -0.80660
O1681       O  0.37367936  0.87584895  0.81502625    -0.80740
O1682       O  0.36088062  0.82956497  0.85236566    -0.80680
O1683       O  0.35719902  0.78836852  0.79762871    -0.80660
O1684       O  0.34753059  0.83957047  0.78635576    -0.80710
O1685       O  0.33677629  0.77893622  0.86188664    -0.80670
O1686       O  0.33059032  0.74192240  0.81797363    -0.80630
O1687       O  0.34352145  0.89089287  0.83760758    -0.80700
Co1688     Co  0.31734001  0.79685276  0.84117446     1.51530
Co1689     Co  0.31953178  0.86704996  0.80519290     1.51690
Co1690     Co  0.30609062  0.84831509  0.84120720     1.51570
Co1691     Co  0.30109517  0.78188133  0.80523923     1.51470
O1692       O  0.31118357  0.82379795  0.82014767    -1.42600
C1693       C  0.36543207  0.74711022  0.82507911     1.08950
C1694       C  0.37352267  0.89384587  0.82764594     1.09040
C1695       C  0.36457694  0.80329877  0.86242940     1.08980
C1696       C  0.35936152  0.80710226  0.78552713     1.08960
C1697       C  0.25117082  0.91466665  0.74294663    -0.00680
C1698       C  0.24807651  0.87702724  0.74139323    -0.12550
C1699       C  0.25109361  0.85312992  0.75456334     0.01560
C1700       C  0.25638261  0.86622691  0.77003815    -0.00770
C1701       C  0.26062615  0.90380645  0.77152722    -0.12490
C1702       C  0.25894860  0.92758387  0.75829277     0.01440
H1703       H  0.24271147  0.86575880  0.72973078     0.14420
H1704       H  0.26659839  0.91504906  0.78315574     0.14420
C1705       C  0.26776946  0.96470822  0.76067575     0.36070
C1706       C  0.24828185  0.81545870  0.75182052     0.35980
N1707       N  0.27535312  0.99444306  0.76248334    -0.44270
N1708       N  0.24616579  0.78525223  0.74957718    -0.44270
C1709       C  0.12871612  0.99107796  0.74369922    -0.00680
C1710       C  0.15741754  0.99152606  0.75656652    -0.12550
C1711       C  0.15485304  0.01717548  0.76860851     0.01560
C1712       C  0.12214806  0.54290640  0.76851094    -0.00770
C1713       C  0.09336549  0.54255705  0.75563084    -0.12490
C1714       C  0.09647836  0.51735209  0.74336509     0.01440
H1715       H  0.18356839  0.97309546  0.75668942     0.14100
H1716       H  0.06724136  0.56104903  0.75550586     0.14420
C1717       C  0.06574159  0.51861048  0.73052209     0.36070
C1718       C  0.18748256  0.01768596  0.78071833     0.35980
N1719       N  0.04098062  0.51948279  0.72026556    -0.44270
N1720       N  0.21437980  0.01864704  0.79013309    -0.44270
C1721       C  0.40624138  0.92106699  0.82940372    -0.00680
C1722       C  0.44040882  0.91929932  0.81895490    -0.12550
C1723       C  0.46876763  0.94698602  0.81770734     0.01560
C1724       C  0.46522812  0.97588228  0.82794164    -0.00770
C1725       C  0.43259571  0.97754151  0.83891978    -0.12490
C1726       C  0.40212617  0.95082946  0.83941450     0.01440
H1727       H  0.44397317  0.89699782  0.81105766     0.14420
H1728       H  0.42993808  0.00041580  0.84654459     0.14420
C1729       C  0.36612962  0.95603733  0.84948868     0.36070
C1730       C  0.49997187  0.94582899  0.80528651     0.35980
N1731       N  0.33732496  0.96033655  0.85756637    -0.44270
N1732       N  0.02444581  0.94489594  0.79517776    -0.44270
C1733       C  0.15579433  0.67040018  0.82920098    -0.00680
C1734       C  0.16243410  0.68936740  0.81496432    -0.12550
C1735       C  0.19045448  0.71741312  0.81422146     0.01560
C1736       C  0.21370397  0.72694437  0.82809051    -0.00770
C1737       C  0.20624074  0.70850719  0.84255651    -0.12490
C1738       C  0.17683677  0.68070178  0.84327124     0.01440
H1739       H  0.14520802  0.68231226  0.80419737     0.14420
H1740       H  0.22343179  0.71567523  0.85326346     0.14420
C1741       C  0.16965384  0.66282310  0.85836955     0.36070
C1742       C  0.19471953  0.73478704  0.79875569     0.35980
N1743       N  0.16389033  0.64883613  0.87056435    -0.44270
N1744       N  0.19761649  0.74849515  0.78632649    -0.44270
C1745       C  0.14823506  0.97020545  0.82236631    -0.00680
C1746       C  0.18947419  0.98375881  0.82211549    -0.12550
C1747       C  0.22476083  0.96121746  0.82245010     0.01560
C1748       C  0.21939040  0.92400833  0.82364276    -0.00770
C1749       C  0.17812484  0.91037679  0.82399848    -0.12490
C1750       C  0.14275713  0.93297567  0.82323779     0.01440
H1751       H  0.19419457  0.51230475  0.82182663     0.14420
H1752       H  0.17343137  0.88188250  0.82500463     0.14420
C1753       C  0.10155814  0.91734913  0.82485810     0.36070
C1754       C  0.26605248  0.97718361  0.82217216     0.35980
N1755       N  0.06875910  0.90449006  0.82639038    -0.44270
N1756       N  0.29908614  0.99008216  0.82185526    -0.44270
C1757       C  0.40139784  0.72122367  0.82483128    -0.00680
C1758       C  0.44282627  0.73420946  0.82654700    -0.12550
C1759       C  0.47793216  0.71130854  0.82670794     0.01560
C1760       C  0.47223484  0.67426897  0.82548095    -0.00770
C1761       C  0.43088367  0.66116587  0.82391169    -0.12490
C1762       C  0.39577694  0.68414519  0.82337720     0.01440
H1763       H  0.44792736  0.76253469  0.82772802     0.14420
H1764       H  0.42595462  0.63276327  0.82296489     0.14420
C1765       C  0.35433070  0.66880616  0.82185569     0.36070
C1766       C  0.01936747  0.72635950  0.82883607     0.35980
N1767       N  0.32106399  0.65657950  0.82062876    -0.44270
N1768       N  0.05264022  0.73827642  0.83057777    -0.44270
C1769       C  0.38686268  0.74431062  0.74398239    -0.00680
C1770       C  0.35868212  0.73183547  0.75531659    -0.12550
C1771       C  0.34808833  0.75273349  0.76838252     0.01560
C1772       C  0.36618824  0.78724677  0.77049577    -0.00770
C1773       C  0.39438078  0.79973136  0.75914783    -0.12490
C1774       C  0.40517825  0.77872393  0.74612939     0.01440
H1775       H  0.34393719  0.70613466  0.75372666     0.14420
H1776       H  0.40927438  0.82535440  0.76077222     0.14420
C1777       C  0.43693818  0.79306234  0.73564645     0.36070
C1778       C  0.31742448  0.73774958  0.77913936     0.35980
N1779       N  0.46284102  0.80518161  0.72762904    -0.44270
N1780       N  0.29276840  0.72470673  0.78742748    -0.44270
C1781       C  0.10046590  0.85584923  0.68438653    -0.00680
C1782       C  0.06315878  0.86156049  0.67569860    -0.12550
C1783       C  0.03208624  0.83532341  0.67543204     0.01560
C1784       C  0.03930960  0.80249948  0.68357405    -0.00770
C1785       C  0.07797573  0.79638400  0.69140781    -0.12490
C1786       C  0.10804680  0.82301906  0.69223226     0.01440
H1787       H  0.05741920  0.88714862  0.66987926     0.14420
H1788       H  0.08377286  0.77138114  0.69774038     0.14420
C1789       C  0.14496562  0.81669216  0.70215462     0.36070
C1790       C  0.49196141  0.84423291  0.66811973     0.35980
N1791       N  0.17403334  0.81117250  0.71030739    -0.44270
N1792       N  0.45959754  0.85150894  0.66246021    -0.44270
C1793       C  0.28569424  0.55489127  0.68448713    -0.00680
C1794       C  0.30967556  0.56237863  0.67090914    -0.12550
C1795       C  0.34008012  0.58942185  0.67114845     0.01560
C1796       C  0.34612983  0.60938056  0.68517892    -0.00770
C1797       C  0.31971212  0.60298632  0.69826446    -0.12490
C1798       C  0.28995409  0.57614068  0.69805853     0.01440
H1799       H  0.30551955  0.54646476  0.66034186     0.14420
H1800       H  0.32287002  0.61833279  0.70904206     0.14420
C1801       C  0.26392218  0.57116333  0.71199353     0.36070
C1802       C  0.36434864  0.59582268  0.65692809     0.35980
N1803       N  0.24313221  0.56715692  0.72313427    -0.44270
N1804       N  0.38365552  0.60086502  0.64548013    -0.44270
C1805       C  0.28232186  0.85568110  0.68962147    -0.00680
C1806       C  0.32233292  0.86746412  0.69439478    -0.12550
C1807       C  0.35713051  0.84444300  0.69468075     0.01560
C1808       C  0.35218040  0.80867891  0.69003064    -0.00770
C1809       C  0.31179670  0.79705915  0.68531708    -0.12490
C1810       C  0.27723587  0.82025721  0.68487993     0.01440
H1811       H  0.32639417  0.89485852  0.69791698     0.14420
H1812       H  0.30729863  0.76992809  0.68150815     0.14420
C1813       C  0.23776081  0.80785171  0.67834039     0.36070
C1814       C  0.39745597  0.85869662  0.69943309     0.35980
N1815       N  0.20639676  0.79795235  0.67284693    -0.44270
N1816       N  0.42972806  0.87023895  0.70323629    -0.44270
C1817       C  0.03617562  0.60751523  0.69008382    -0.00680
C1818       C  0.04456073  0.59062952  0.67568490    -0.12550
C1819       C  0.07978590  0.56834514  0.67415006     0.01560
C1820       C  0.10625435  0.56064768  0.68749992    -0.00770
C1821       C  0.09920908  0.57899410  0.70160549    -0.12490
C1822       C  0.06559638  0.60304874  0.70283766     0.01440
H1823       H  0.02443790  0.59610827  0.66535633     0.14420
H1824       H  0.12057784  0.57497794  0.71169518     0.14420
C1825       C  0.06616548  0.62531218  0.71658840     0.36070
C1826       C  0.09105427  0.55826299  0.65827596     0.35980
N1827       N  0.07055474  0.64290121  0.72765499    -0.44270
N1828       N  0.10001013  0.55237856  0.64525304    -0.44270
C1829       C  0.99727967  0.61879115  0.77157005    -0.00680
C1830       C  0.50017648  0.65635365  0.77335517    -0.12550
C1831       C  0.49746520  0.68038875  0.76030766     0.01560
C1832       C  0.49176921  0.66742988  0.74486609    -0.00770
C1833       C  0.98551950  0.63014168  0.74325759    -0.12490
C1834       C  0.98836132  0.60608834  0.75628292     0.01440
H1835       H  0.50609108  0.66739539  0.78502923     0.14420
H1836       H  0.97877433  0.61927884  0.73161352     0.14420
C1837       C  0.98129759  0.56877894  0.75363120     0.36070
C1838       C  0.50163475  0.71794890  0.76310240     0.35980
N1839       N  0.97551041  0.53887054  0.75150266    -0.44270
N1840       N  0.50483250  0.74807166  0.76538091    -0.44270
C1841       C  0.09914462  0.69123464  0.62160949    -0.00680
C1842       C  0.10496756  0.69024149  0.63819425    -0.12550
C1843       C  0.07038023  0.68947715  0.64841579     0.01560
C1844       C  0.02892403  0.68768567  0.64204647    -0.00770
C1845       C  0.02313618  0.68742238  0.62543924    -0.12490
C1846       C  0.05770886  0.69008838  0.61520068     0.01440
H1847       H  0.13662725  0.69139191  0.64317477     0.14420
H1848       H  0.49146127  0.68666748  0.62045847     0.14420
C1849       C  0.04972908  0.69127732  0.59818717     0.36070
C1850       C  0.07855638  0.69115648  0.66538316     0.35980
N1851       N  0.04300964  0.69227518  0.58457141    -0.44270
N1852       N  0.08569974  0.69283465  0.67893268    -0.44270
C1853       C  0.27440135  0.72884071  0.62343759    -0.00680
C1854       C  0.29146227  0.76076292  0.62902674    -0.12550
C1855       C  0.32787199  0.76057907  0.63883188     0.01560
C1856       C  0.34885915  0.72826935  0.64265741    -0.00770
C1857       C  0.33049866  0.69644298  0.63770273    -0.12490
C1858       C  0.29343210  0.69635477  0.62853266     0.01440
H1859       H  0.27639799  0.78580628  0.62577827     0.14420
H1860       H  0.34496660  0.67128348  0.64117529     0.14420
C1861       C  0.27481890  0.66222799  0.62517311     0.36070
C1862       C  0.34037238  0.79318823  0.64616743     0.35980
N1863       N  0.26006115  0.63473854  0.62271298    -0.44270
N1864       N  0.34947488  0.81898890  0.65261241    -0.44270
C1865       C  0.35225527  0.93892568  0.62042641    -0.00680
C1866       C  0.32153288  0.96594070  0.61956989    -0.12550
C1867       C  0.28555564  0.96473970  0.62904997     0.01560
C1868       C  0.27912269  0.93602700  0.63981944    -0.00770
C1869       C  0.30944729  0.90866316  0.64071453    -0.12490
C1870       C  0.34588907  0.91006393  0.63119164     0.01440
H1871       H  0.32534194  0.48829983  0.61135237     0.14420
H1872       H  0.30536651  0.88687166  0.64920797     0.14420
C1873       C  0.37701676  0.88227365  0.63279163     0.36070
C1874       C  0.25527436  0.49327724  0.62722713     0.35980
N1875       N  0.40322536  0.86087103  0.63348921    -0.44270
N1876       N  0.23132046  0.51629752  0.62552770    -0.44270
C1877       C  0.10311658  0.97479860  0.63990383    -0.00680
C1878       C  0.10818078  0.97811206  0.62334543    -0.12550
C1879       C  0.07309786  0.97816196  0.61295419     0.01560
C1880       C  0.03188176  0.97659380  0.61916968    -0.00770
C1881       C  0.02680921  0.97423567  0.63573843    -0.12490
C1882       C  0.06186091  0.97250831  0.64608369     0.01440
H1883       H  0.13965808  0.97957205  0.61849955     0.14420
H1884       H  0.49533811  0.97267059  0.64059179     0.14420
C1885       C  0.05447822  0.96920607  0.66303077     0.36070
C1886       C  0.08045012  0.97979173  0.59598791     0.35980
N1887       N  0.04836221  0.96653047  0.67659416    -0.44270
N1888       N  0.08694221  0.98090936  0.58242137    -0.44270
C1889       C  0.09469257  0.80981500  0.57482567    -0.00680
C1890       C  0.07709239  0.82104039  0.58917213    -0.12550
C1891       C  0.04631075  0.84791821  0.58909593     0.01560
C1892       C  0.03317043  0.86391889  0.57443450    -0.00770
C1893       C  0.05233997  0.85344566  0.56026395    -0.12490
C1894       C  0.08275743  0.82695714  0.56031010     0.01440
H1895       H  0.08684479  0.80841936  0.60036974     0.14420
H1896       H  0.04311328  0.86558726  0.54889372     0.14420
C1897       C  0.10187974  0.81871906  0.54521534     0.36070
C1898       C  0.02956365  0.85895207  0.60416491     0.35980
N1899       N  0.11711602  0.81218351  0.53313309    -0.44270
N1900       N  0.01627366  0.86787352  0.61625687    -0.44270
C1901       C  0.34347377  0.55820392  0.58128532    -0.00680
C1902       C  0.35491784  0.59147197  0.58730636    -0.12550
C1903       C  0.32543461  0.61907468  0.58770337     0.01560
C1904       C  0.28370896  0.61257888  0.58283646    -0.00770
C1905       C  0.27146285  0.57863871  0.57821168    -0.12490
C1906       C  0.30107157  0.55162342  0.57702121     0.01440
H1907       H  0.38752879  0.59678234  0.59042211     0.14420
H1908       H  0.23922170  0.57400292  0.57432423     0.14420
C1909       C  0.28748109  0.51852281  0.57019799     0.36070
C1910       C  0.33905504  0.65409914  0.59221873     0.35980
N1911       N  0.27628973  0.49253648  0.56433523    -0.44270
N1912       N  0.35013207  0.68217598  0.59577744    -0.44270
C1913       C  0.03163615  0.56042870  0.57250016    -0.00680
C1914       C  0.04374653  0.57380892  0.58739661    -0.12550
C1915       C  0.07899544  0.59603257  0.58895126     0.01560
C1916       C  0.10237948  0.60595114  0.57534251    -0.00770
C1917       C  0.09170215  0.59110706  0.56068907    -0.12490
C1918       C  0.05711634  0.56836223  0.55916027     0.01440
H1919       H  0.02612502  0.56618932  0.59793357     0.14420
H1920       H  0.11053373  0.59742590  0.55029259     0.14420
C1921       C  0.05161977  0.55201297  0.54393756     0.36070
C1922       C  0.09282513  0.60503588  0.60480742     0.35980
N1923       N  0.05104052  0.53979082  0.53139193    -0.44270
N1924       N  0.10391880  0.61079233  0.61770394    -0.44270
C1925       C  0.27773364  0.81086509  0.57198625    -0.00680
C1926       C  0.27050777  0.84572365  0.57681912    -0.12550
C1927       C  0.30322787  0.87075119  0.57723010     0.01560
C1928       C  0.34427927  0.86142773  0.57220003    -0.00770
C1929       C  0.35104375  0.82649187  0.56703336    -0.12490
C1930       C  0.31848996  0.80123474  0.56709471     0.01440
H1931       H  0.23929001  0.85319575  0.58068938     0.14420
H1932       H  0.38205030  0.81864192  0.56310380     0.14420
C1933       C  0.32743365  0.76580098  0.56171482     0.36070
C1934       C  0.29320650  0.90561660  0.58294963     0.35980
N1935       N  0.33462619  0.73743102  0.55737440    -0.44270
N1936       N  0.28450692  0.93328431  0.58772094    -0.44270
C1937       C  0.26829650  0.78029997  0.49001443    -0.00680
C1938       C  0.27848601  0.74374110  0.49161817    -0.12550
C1939       C  0.26814623  0.72369665  0.50540680     0.01560
C1940       C  0.24766315  0.74035005  0.51804953    -0.00770
C1941       C  0.23511392  0.77636608  0.51584245    -0.12490
C1942       C  0.24527448  0.79623400  0.50210587     0.01440
H1943       H  0.29630785  0.73114291  0.48231058     0.14420
H1944       H  0.21808106  0.78966996  0.52515969     0.14420
C1945       C  0.23480512  0.83359530  0.50131595     0.36070
C1946       C  0.28088928  0.68692936  0.50660974     0.35980
N1947       N  0.22657139  0.86357411  0.50071952    -0.44270
N1948       N  0.29106438  0.65740119  0.50752854    -0.44270
C1949       C  0.36508494  0.89687748  0.48765895    -0.00680
C1950       C  0.35955510  0.93413254  0.48812782    -0.12550
C1951       C  0.36557082  0.95310475  0.50233104     0.01560
C1952       C  0.37533200  0.93451764  0.51668093    -0.00770
C1953       C  0.38268855  0.89741764  0.51589497    -0.12490
C1954       C  0.37799656  0.87879290  0.50168343     0.01440
H1955       H  0.34808797  0.94824477  0.47753874     0.14420
H1956       H  0.39176856  0.88234118  0.52655792     0.14420
C1957       C  0.38301419  0.84062249  0.50222568     0.36070
C1958       C  0.35966473  0.99112821  0.50191457     0.35980
N1959       N  0.38710952  0.81005479  0.50287567    -0.44270
N1960       N  0.35506087  0.02165329  0.50145899    -0.44270
C1961       C  0.00188744  0.54751004  0.49014384    -0.00680
C1962       C  0.97347834  0.55863111  0.50151390    -0.12550
C1963       C  0.46307099  0.53635429  0.51442156     0.01560
C1964       C  0.48103485  0.50156861  0.51606781    -0.00770
C1965       C  0.50813158  0.48994136  0.50438884    -0.12490
C1966       C  0.51964986  0.51268713  0.49177757     0.01440
H1967       H  0.95951845  0.58491799  0.50035422     0.14420
H1968       H  0.52309278  0.96410157  0.50585245     0.14420
C1969       C  0.55343542  0.50008730  0.48207644     0.36070
C1970       C  0.93447157  0.55085230  0.52588760     0.35980
N1971       N  0.58132067  0.48806996  0.47523397    -0.44270
N1972       N  0.91139189  0.56343011  0.53476194    -0.44270
C1973       C  0.40649289  0.73615929  0.43793369    -0.00680
C1974       C  0.43557420  0.73317690  0.45055400    -0.12550
C1975       C  0.46670095  0.70731976  0.45039457     0.01560
C1976       C  0.46948777  0.68478241  0.43719419    -0.00770
C1977       C  0.44154892  0.68818180  0.42434206    -0.12490
C1978       C  0.40949309  0.71334030  0.42467063     0.01440
H1979       H  0.43327148  0.75033121  0.46077573     0.14420
H1980       H  0.44418506  0.67059382  0.41427659     0.14420
C1981       C  0.38106070  0.71537481  0.41106902     0.36070
C1982       C  0.49524012  0.70430596  0.46395268     0.35980
N1983       N  0.35846176  0.71674770  0.40012403    -0.44270
N1984       N  0.51794382  0.70182978  0.47483722    -0.44270
C1985       C  0.16728920  0.99382862  0.43864760    -0.00680
C1986       C  0.15863800  0.96409312  0.42929466    -0.12550
C1987       C  0.18713036  0.93621683  0.42855934     0.01560
C1988       C  0.22543203  0.93837843  0.43698839    -0.00770
C1989       C  0.23527389  0.96858364  0.44578949    -0.12490
C1990       C  0.20623167  0.99629705  0.44683945     0.01440
H1991       H  0.12838149  0.96152579  0.42328595     0.14420
H1992       H  0.26526015  0.97010349  0.45209674     0.14420
C1993       C  0.21695615  0.52652381  0.45644867     0.36070
C1994       C  0.17546788  0.90530851  0.41956672     0.35980
N1995       N  0.22554030  0.55067024  0.46419527    -0.44270
N1996       N  0.16511425  0.88077222  0.41239374    -0.44270
C1997       C  0.41587484  0.91924429  0.43669235    -0.00680
C1998       C  0.41683885  0.94729736  0.44735883    -0.12550
C1999       C  0.45063724  0.97109186  0.44768119     0.01560
C2000       C  0.48594514  0.96588416  0.43774870    -0.00770
C2001       C  0.48616289  0.93673699  0.42772887    -0.12490
C2002       C  0.45166673  0.91375565  0.42696484     0.01440
H2003       H  0.38935923  0.95265044  0.45445821     0.14420
H2004       H  0.51256449  0.93298960  0.41981953     0.14420
C2005       C  0.45361817  0.88635078  0.41525135     0.36070
C2006       C  0.44409646  0.00300543  0.45654472     0.35980
N2007       N  0.45612075  0.86526913  0.40546535    -0.44270
N2008       N  0.43511733  0.52802544  0.46356291    -0.44270
C2009       C  0.21898577  0.74349825  0.44702273    -0.00680
C2010       C  0.17765176  0.75676349  0.44748938    -0.12550
C2011       C  0.14309288  0.73362652  0.44721710     0.01560
C2012       C  0.15009254  0.69677575  0.44593796    -0.00770
C2013       C  0.19154330  0.68366396  0.44635578    -0.12490
C2014       C  0.22589319  0.70659723  0.44715186     0.01440
H2015       H  0.17240275  0.78526884  0.44715523     0.14420
H2016       H  0.19718123  0.65533064  0.44545069     0.14420
C2017       C  0.26785950  0.69180258  0.44651501     0.36070
C2018       C  0.10115053  0.74850528  0.44676042     0.35980
N2019       N  0.30149347  0.68003012  0.44598710    -0.44270
N2020       N  0.06753642  0.76044730  0.44636958    -0.44270
C2021       C  0.12408295  0.62033683  0.49508028    -0.00680
C2022       C  0.09266943  0.62198916  0.50671429    -0.12550
C2023       C  0.09404068  0.64779283  0.51863670     0.01560
C2024       C  0.12715759  0.67285626  0.51911362    -0.00770
C2025       C  0.15839396  0.67117665  0.50745261    -0.12490
C2026       C  0.15754419  0.64496440  0.49576971     0.01440
H2027       H  0.06585390  0.60426234  0.50605035     0.14420
H2028       H  0.18519507  0.68882680  0.50811512     0.14420
C2029       C  0.19251648  0.64266338  0.48500367     0.36070
C2030       C  0.06074739  0.64848681  0.53020387     0.35980
N2031       N  0.22116317  0.64035012  0.47669033    -0.44270
N2032       N  0.03393862  0.64912199  0.53942567    -0.44270
C2033       C  0.40072716  0.58946042  0.89201252    -0.00680
C2034       C  0.44121054  0.58825040  0.89901425    -0.12550
C2035       C  0.47755772  0.58952643  0.88963009     0.01560
C2036       C  0.47379870  0.59069866  0.87284401    -0.00770
C2037       C  0.43330060  0.59210353  0.86582041    -0.12490
C2038       C  0.39694147  0.59206164  0.87524710     0.01440
H2039       H  0.44443496  0.58575160  0.91188132     0.14420
H2040       H  0.43006920  0.59283383  0.85290974     0.14420
C2041       C  0.35613138  0.59260292  0.86746565     0.36070
C2042       C  0.01825507  0.58752822  0.89746321     0.35980
N2043       N  0.32335289  0.59295972  0.86127115    -0.44270
N2044       N  0.05082483  0.58586289  0.90378220    -0.44270
C2045       C  0.21908913  0.54574081  0.89416347    -0.00680
C2046       C  0.21410720  0.51835901  0.88308534    -0.12550
C2047       C  0.17747620  0.51610509  0.87350956     0.01560
C2048       C  0.14678463  0.54324549  0.87389592    -0.00770
C2049       C  0.15066732  0.56937089  0.88538933    -0.12490
C2050       C  0.18484559  0.56957678  0.89605035     0.01440
H2051       H  0.23834046  0.49819889  0.88213026     0.14420
H2052       H  0.12588939  0.58906431  0.88641818     0.14420
C2053       C  0.18057385  0.59161831  0.90977618     0.36070
C2054       C  0.17132597  0.48479648  0.86419785     0.35980
N2055       N  0.17453967  0.60803317  0.92104154    -0.44270
N2056       N  0.16649452  0.45850729  0.85750831    -0.44270
C2057       C  0.15477144  0.83827941  0.89386868    -0.00680
C2058       C  0.17859438  0.80744549  0.89142389    -0.12550
C2059       C  0.21440771  0.80794054  0.88194449     0.01560
C2060       C  0.22757256  0.83994642  0.87452484    -0.00770
C2061       C  0.20507024  0.87135604  0.87741975    -0.12490
C2062       C  0.16892499  0.87080355  0.88703079     0.01440
H2063       H  0.16925285  0.78256689  0.89697782     0.14420
H2064       H  0.21517177  0.89616379  0.87190251     0.14420
C2065       C  0.14796147  0.90401368  0.89008619     0.36070
C2066       C  0.23787341  0.77522777  0.88051105     0.35980
N2067       N  0.13120181  0.93059639  0.89267534    -0.44270
N2068       N  0.25666231  0.74898803  0.87955040    -0.44270
C2069       C  0.40248345  0.80101093  0.87328133    -0.00680
C2070       C  0.41777339  0.76781115  0.87894222    -0.12550
C2071       C  0.45475773  0.76524671  0.88848948     0.01560
C2072       C  0.47724615  0.79632110  0.89252908    -0.00770
C2073       C  0.46170660  0.82922519  0.88697720    -0.12490
C2074       C  0.42510360  0.83188166  0.87758927     0.01440
H2075       H  0.40098468  0.74379142  0.87585233     0.14420
H2076       H  0.47810814  0.85339520  0.89019792     0.14420
C2077       C  0.41083595  0.86719484  0.87330193     0.36070
C2078       C  0.46768222  0.73072510  0.89455680     0.35980
N2079       N  0.39994545  0.89583903  0.87018121    -0.44270
N2080       N  0.47776992  0.70295322  0.89941541    -0.44270
C2081       C  0.47412272  0.91535018  0.93512117    -0.00680
C2082       C  0.43636026  0.90932964  0.92684892    -0.12550
C2083       C  0.40533781  0.93577105  0.92597071     0.01560
C2084       C  0.41293076  0.96886920  0.93322175    -0.00770
C2085       C  0.45211567  0.97531309  0.94047906    -0.12490
C2086       C  0.48226469  0.94866705  0.94181570     0.01440
H2087       H  0.43033755  0.88345394  0.92180359     0.14420
H2088       H  0.45821134  0.00060202  0.94607920     0.14420
C2089       C  0.01965331  0.95546495  0.95127301     0.36070
C2090       C  0.36508819  0.92703548  0.91886415     0.35980
N2091       N  0.04887061  0.96145264  0.95915779    -0.44270
N2092       N  0.33275595  0.91995822  0.91325754    -0.44270
C2093       C  0.16719971  0.72249972  0.93805567    -0.00680
C2094       C  0.19001115  0.71402231  0.95212868    -0.12550
C2095       C  0.21973077  0.68705607  0.95252714     0.01560
C2096       C  0.22817987  0.66848333  0.93849170    -0.00770
C2097       C  0.20937745  0.67955393  0.92399467    -0.12490
C2098       C  0.17760948  0.70537818  0.92374702     0.01440
H2099       H  0.18340508  0.72729378  0.96320773     0.14420
H2100       H  0.21744829  0.66633896  0.91304802     0.14420
C2101       C  0.15530475  0.71225280  0.90888593     0.36070
C2102       C  0.24132452  0.67934398  0.96752765     0.35980
N2103       N  0.13726247  0.71712506  0.89694991    -0.44270
N2104       N  0.25857628  0.67315389  0.97951951    -0.44270
C2105       C  0.40819781  0.66433265  0.94108633    -0.00680
C2106       C  0.44880484  0.65222410  0.93724416    -0.12550
C2107       C  0.48375001  0.67507852  0.93756091     0.01560
C2108       C  0.47835060  0.71106484  0.94141715    -0.00770
C2109       C  0.43812160  0.72317148  0.94544601    -0.12490
C2110       C  0.40338692  0.70020943  0.94560330     0.01440
H2111       H  0.45342420  0.62471885  0.93409799     0.14420
H2112       H  0.43388046  0.75076768  0.94861213     0.14420
C2113       C  0.36324997  0.71457185  0.95024634     0.36070
C2114       C  0.52448424  0.66148143  0.93320458     0.35980
N2115       N  0.33119049  0.72610163  0.95407415    -0.44270
N2116       N  0.05724559  0.65084177  0.92970558    -0.44270
C2117       C  0.22532040  0.96294486  0.94160593    -0.00680
C2118       C  0.23305746  0.92625919  0.94323768    -0.12550
C2119       C  0.19973959  0.90168045  0.94364369     0.01560
C2120       C  0.15747625  0.91360032  0.94244471    -0.00770
C2121       C  0.14971770  0.95021675  0.94134233    -0.12490
C2122       C  0.18288439  0.97478528  0.94099582     0.01440
H2123       H  0.26525806  0.91667019  0.94402234     0.14420
H2124       H  0.11753608  0.95974123  0.94049684     0.14420
C2125       C  0.17201707  0.51202691  0.94079983     0.36070
C2126       C  0.20977229  0.86444204  0.94585431     0.35980
N2127       N  0.16274454  0.54176005  0.94089860    -0.44270
N2128       N  0.21776719  0.83461298  0.94772277    -0.44270
C2129       C  0.26196257  0.52240881  0.99527957    -0.00680
C2130       C  0.22884619  0.53182998  0.00509884    -0.12550
C2131       C  0.21590960  0.00885941  0.01753417     0.01560
C2132       C  0.23692859  0.97578702  0.02073117    -0.00770
C2133       C  0.26978414  0.96618699  0.01085154    -0.12490
C2134       C  0.28214734  0.48875850  0.99819194     0.01440
H2135       H  0.21187870  0.55641757  0.00265123     0.14420
H2136       H  0.28661249  0.94151695  0.01327825     0.14420
C2137       C  0.31624934  0.47635576  0.98847163     0.36070
C2138       C  0.17964358  0.01961612  0.02652027     0.35980
N2139       N  0.34359796  0.46583731  0.98085941    -0.44270
N2140       N  0.15042225  0.02857502  0.03353616    -0.44270
C2141       C  0.12265872  0.89753350  0.02335606    -0.00680
C2142       C  0.11862913  0.85992934  0.02525654    -0.12550
C2143       C  0.11743328  0.83678940  0.01222338     0.01560
C2144       C  0.11944875  0.85070309  0.99658135    -0.00770
C2145       C  0.12348047  0.88822685  0.99468364    -0.12490
C2146       C  0.12470504  0.91134829  0.00768111     0.01440
H2147       H  0.11727975  0.84800660  0.03712438     0.14420
H2148       H  0.12473217  0.90017577  0.98281417     0.14420
C2149       C  0.12697847  0.94901428  0.00433803     0.36070
C2150       C  0.11460110  0.79901094  0.01532738     0.35980
N2151       N  0.12809218  0.97906272  0.00118009    -0.44270
N2152       N  0.11245254  0.76873067  0.01787696    -0.44270
C2153       C  0.37518168  0.59962432  0.99405674    -0.00680
C2154       C  0.37680773  0.63732945  0.99200607    -0.12550
C2155       C  0.37759556  0.66065809  0.00494575     0.01560
C2156       C  0.37748094  0.64688811  0.02062602    -0.00770
C2157       C  0.37497373  0.60924115  0.02267056    -0.12490
C2158       C  0.37401231  0.58591418  0.00974048     0.01440
H2159       H  0.37692481  0.64917326  0.98010725     0.14420
H2160       H  0.37502732  0.59738981  0.03456623     0.14420
C2161       C  0.37290911  0.54815311  0.01303665     0.36070
C2162       C  0.37822908  0.69846756  0.00171483     0.35980
N2163       N  0.37239254  0.51792942  0.01585974    -0.44270
N2164       N  0.37858553  0.72876594  0.99905935    -0.44270
C2165       C  0.03441425  0.58798641  0.08074249    -0.00680
C2166       C  0.02636634  0.55777681  0.09034429    -0.12550
C2167       C  0.05533589  0.52978800  0.09137054     0.01560
C2168       C  0.09356444  0.53262187  0.08320145    -0.00770
C2169       C  0.10276479  0.56341602  0.07441126    -0.12490
C2170       C  0.07348339  0.59076879  0.07284798     0.01440
H2171       H  0.49631426  0.55496633  0.09624741     0.14420
H2172       H  0.13215014  0.56518959  0.06794106     0.14420
C2173       C  0.08391325  0.61988022  0.06217816     0.36070
C2174       C  0.04386868  0.99798037  0.10006522     0.35980
N2175       N  0.09290438  0.64226893  0.05321899    -0.44270
N2176       N  0.03340004  0.97286262  0.10709930    -0.44270
C2177       C  0.34859722  0.78589306  0.07852639    -0.00680
C2178       C  0.31064447  0.77838890  0.08612273    -0.12550
C2179       C  0.27917185  0.80428010  0.08676818     0.01560
C2180       C  0.28617703  0.83830791  0.07980732    -0.00770
C2181       C  0.32489248  0.84584344  0.07264144    -0.12490
C2182       C  0.35591602  0.81982966  0.07179606     0.01440
H2183       H  0.30499361  0.75188298  0.09095003     0.14420
H2184       H  0.33031295  0.87174699  0.06713569     0.14420
C2185       C  0.39391283  0.82800800  0.06315177     0.36070
C2186       C  0.23902486  0.79415628  0.09336482     0.35980
N2187       N  0.42400742  0.83476910  0.05606865    -0.44270
N2188       N  0.20676732  0.78597378  0.09854092    -0.44270
C2189       C  0.34540454  0.58469613  0.07561693    -0.00680
C2190       C  0.31326250  0.58857726  0.06409716    -0.12550
C2191       C  0.27760845  0.56645950  0.06429384     0.01560
C2192       C  0.27396551  0.53910448  0.07607814    -0.00770
C2193       C  0.30588795  0.53633139  0.08790512    -0.12490
C2194       C  0.34112740  0.55879645  0.08780548     0.01440
H2195       H  0.31572020  0.60939257  0.05501882     0.14420
H2196       H  0.30299087  0.51689843  0.09748097     0.14420
C2197       C  0.37218528  0.55529482  0.10048292     0.36070
C2198       C  0.24532729  0.57353112  0.05243491     0.35980
N2199       N  0.39705237  0.55280465  0.11066276    -0.44270
N2200       N  0.21996393  0.58089003  0.04291010    -0.44270
C2201       C  0.03122992  0.78379121  0.07410698    -0.00680
C2202       C  0.02478736  0.81680761  0.08102823    -0.12550
C2203       C  0.05765041  0.84142682  0.08229275     0.01560
C2204       C  0.09826601  0.83323837  0.07644160    -0.00770
C2205       C  0.10420468  0.80019509  0.06924194    -0.12490
C2206       C  0.07123141  0.77564883  0.06804291     0.01440
H2207       H  0.99395507  0.82324465  0.08562930     0.14420
H2208       H  0.13466151  0.79349484  0.06440002     0.14420
C2209       C  0.07877964  0.74316298  0.05973795     0.36070
C2210       C  0.04789172  0.87498790  0.08936373     0.35980
N2211       N  0.08529321  0.71757294  0.05276071    -0.44270
N2212       N  0.03932054  0.90178425  0.09502185    -0.44270
C2213       C  0.99480297  0.72269679  0.02039516    -0.00680
C2214       C  0.00241053  0.75963261  0.02264546    -0.12550
C2215       C  0.00418302  0.78443243  0.00987417     0.01560
C2216       C  0.99917713  0.77291752  0.99413076    -0.00770
C2217       C  0.49037172  0.73614413  0.99191802    -0.12490
C2218       C  0.48896578  0.71129525  0.00467763     0.01440
H2219       H  0.00645992  0.76975863  0.03459689     0.14420
H2220       H  0.48622347  0.72604823  0.97996289     0.14420
C2221       C  0.48305505  0.67422509  0.00117709     0.36070
C2222       C  0.01081448  0.82142316  0.01336147     0.35980
N2223       N  0.47876723  0.64447985  0.99829322    -0.44270
N2224       N  0.01575417  0.85109286  0.01625410    -0.44270
C2225       C  0.10089007  0.70642270  0.14349575    -0.00680
C2226       C  0.08386724  0.67361242  0.13899166    -0.12550
C2227       C  0.04866002  0.67161662  0.12880279     0.01560
C2228       C  0.02854029  0.70305743  0.12305474    -0.00770
C2229       C  0.04532347  0.73602341  0.12763694    -0.12490
C2230       C  0.08141262  0.73789769  0.13757714     0.01440
H2231       H  0.09843360  0.64913100  0.14336262     0.14420
H2232       H  0.03076531  0.76040831  0.12318355     0.14420
C2233       C  0.09750668  0.77233100  0.14171872     0.36070
C2234       C  0.03361546  0.63666499  0.12477360     0.35980
N2235       N  0.11099764  0.79975211  0.14508071    -0.44270
N2236       N  0.02189662  0.60853361  0.12160491    -0.44270
C2237       C  0.27681643  0.66808766  0.14203415    -0.00680
C2238       C  0.29580866  0.70020407  0.13733504    -0.12550
C2239       C  0.33173676  0.70084856  0.12782709     0.01560
C2240       C  0.35041358  0.66865961  0.12293047    -0.00770
C2241       C  0.33157714  0.63637931  0.12764451    -0.12490
C2242       C  0.29484576  0.63581904  0.13692416     0.01440
H2243       H  0.28249762  0.72518800  0.14115239     0.14420
H2244       H  0.34509313  0.61152118  0.12383006     0.14420
C2245       C  0.27716136  0.60175927  0.14133499     0.36070
C2246       C  0.34924225  0.73520086  0.12371573     0.35980
N2247       N  0.26310831  0.57439835  0.14486485    -0.44270
N2248       N  0.36294278  0.76286084  0.12048341    -0.44270
C2249       C  0.35494787  0.95226822  0.14357756    -0.00680
C2250       C  0.31512029  0.94589221  0.15024646    -0.12550
C2251       C  0.27843562  0.94620895  0.14070434     0.01560
C2252       C  0.28124951  0.95230828  0.12411367    -0.00770
C2253       C  0.32112612  0.95741578  0.11735529    -0.12490
C2254       C  0.35769571  0.95838444  0.12695562     0.01440
H2255       H  0.31264573  0.94059278  0.16297581     0.14420
H2256       H  0.32378933  0.96028516  0.10450993     0.14420
C2257       C  0.39780863  0.96393777  0.11939922     0.36070
C2258       C  0.23856115  0.93795164  0.14799078     0.35980
N2259       N  0.42999594  0.96844747  0.11337078    -0.44270
N2260       N  0.20657427  0.93100014  0.15372315    -0.44270
C2261       C  0.10815065  0.91200183  0.12689286    -0.00680
C2262       C  0.08560971  0.88040559  0.12977166    -0.12550
C2263       C  0.04910382  0.88024404  0.13925322     0.01560
C2264       C  0.03486235  0.91211870  0.14613559    -0.00770
C2265       C  0.05850755  0.94323481  0.14359638    -0.12490
C2266       C  0.09442694  0.94349063  0.13415017     0.01440
H2267       H  0.09545924  0.85621259  0.12405877     0.14420
H2268       H  0.04855300  0.96800301  0.14881115     0.14420
C2269       C  0.11614875  0.97693214  0.13190622     0.36070
C2270       C  0.02706024  0.84717034  0.14178709     0.35980
N2271       N  0.13306501  0.50388821  0.13005599    -0.44270
N2272       N  0.00923270  0.82074743  0.14394616    -0.44270
C2273       C  0.03696393  0.53627104  0.18394965    -0.00680
C2274       C  0.07851091  0.52810773  0.18010234    -0.12550
C2275       C  0.10963814  0.55415381  0.18084837     0.01560
C2276       C  0.09887208  0.58881206  0.18564391    -0.00770
C2277       C  0.05714910  0.59716628  0.18897268    -0.12490
C2278       C  0.02606428  0.57126594  0.18816306     0.01440
H2279       H  0.08689395  0.00103985  0.17718101     0.14420
H2280       H  0.04909469  0.62378110  0.19269761     0.14420
C2281       C  0.48425974  0.58121784  0.19294437     0.36070
C2282       C  0.15266532  0.54382651  0.17790404     0.35980
N2283       N  0.45152328  0.59075838  0.19702776    -0.44270
N2284       N  0.18709347  0.53542405  0.17558562    -0.44270
C2285       C  0.28444196  0.78809666  0.18640046    -0.00680
C2286       C  0.31158383  0.79406139  0.17359661    -0.12550
C2287       C  0.34170249  0.82131030  0.17422273     0.01560
C2288       C  0.34490628  0.84263974  0.18799659    -0.00770
C2289       C  0.31518903  0.83802410  0.20012390    -0.12490
C2290       C  0.28523014  0.81122131  0.19942242     0.01440
H2291       H  0.31017232  0.77676490  0.16338878     0.14420
H2292       H  0.31599749  0.85465931  0.21055584     0.14420
C2293       C  0.25552274  0.80822053  0.21229868     0.36070
C2294       C  0.36868098  0.82647707  0.16063128     0.35980
N2295       N  0.23165213  0.80660896  0.22260718    -0.44270
N2296       N  0.39009643  0.83065637  0.14967740    -0.44270
C2297       C  0.35544031  0.53804540  0.19003646    -0.00680
C2298       C  0.32147040  0.53067392  0.20004248    -0.12550
C2299       C  0.28632976  0.55323603  0.20032549     0.01560
C2300       C  0.28448738  0.58377877  0.19014733    -0.00770
C2301       C  0.31872245  0.59072977  0.18000257    -0.12490
C2302       C  0.35368138  0.56797041  0.17973548     0.01440
H2303       H  0.32237388  0.50699640  0.20761266     0.14420
H2304       H  0.31810522  0.61384875  0.17208265     0.14420
C2305       C  0.38648002  0.57493605  0.16831490     0.36070
C2306       C  0.25326571  0.54434681  0.21136445     0.35980
N2307       N  0.41265154  0.58034155  0.15909519    -0.44270
N2308       N  0.22692415  0.53695277  0.22024183    -0.44270
C2309       C  0.10654331  0.78808955  0.19548777    -0.00680
C2310       C  0.07042753  0.77984316  0.20441336    -0.12550
C2311       C  0.03578633  0.80354957  0.20505761     0.01560
C2312       C  0.03581748  0.83599596  0.19610618    -0.00770
C2313       C  0.07249626  0.84413687  0.18734102    -0.12490
C2314       C  0.10749953  0.82098733  0.18715905     0.01440
H2315       H  0.06936162  0.75478034  0.21101038     0.14420
H2316       H  0.07403317  0.86882506  0.18048560     0.14420
C2317       C  0.14388535  0.83120775  0.17800091     0.36070
C2318       C  0.00107417  0.79397627  0.21521049     0.35980
N2319       N  0.17312077  0.83927185  0.17067088    -0.44270
N2320       N  0.47342751  0.78641263  0.22347356    -0.44270
C2321       C  0.44568999  0.81727037  0.35713625    -0.00680
C2322       C  0.45795877  0.80206350  0.37196391    -0.12550
C2323       C  0.43058818  0.80091394  0.38484952     0.01560
C2324       C  0.39021982  0.81614984  0.38315951    -0.00770
C2325       C  0.37735702  0.83047465  0.36828551    -0.12490
C2326       C  0.40444720  0.83117693  0.35530878     0.01440
H2327       H  0.48966498  0.79184930  0.37372331     0.14420
H2328       H  0.34613063  0.84199592  0.36688258     0.14420
C2329       C  0.38938506  0.84807717  0.34067794     0.36070
C2330       C  0.44670351  0.78742700  0.39998194     0.35980
N2331       N  0.37715904  0.86178497  0.32902412    -0.44270
N2332       N  0.46094887  0.77748885  0.41204086    -0.44270
C2333       C  0.16949586  0.82321652  0.35816959    -0.00680
C2334       C  0.19625411  0.85285842  0.35861364    -0.12550
C2335       C  0.22041672  0.85980363  0.37227203     0.01560
C2336       C  0.21803676  0.83661453  0.38563280    -0.00770
C2337       C  0.19114569  0.80717579  0.38521148    -0.12490
C2338       C  0.16678614  0.80036783  0.37167876     0.01440
H2339       H  0.19773290  0.87094535  0.34839872     0.14420
H2340       H  0.19020385  0.78881038  0.39535759     0.14420
C2341       C  0.14048487  0.76905328  0.37178856     0.36070
C2342       C  0.24891952  0.88966797  0.37199442     0.35980
N2343       N  0.11945145  0.74396497  0.37190903    -0.44270
N2344       N  0.27181222  0.91356168  0.37176678    -0.44270
C2345       C  0.15797439  0.71543443  0.25004138    -0.00680
C2346       C  0.11764483  0.71869411  0.25612131    -0.12550
C2347       C  0.10750242  0.74594745  0.26666328     0.01560
C2348       C  0.13939105  0.76916502  0.27274460    -0.00770
C2349       C  0.18000800  0.76447993  0.26740851    -0.12490
C2350       C  0.18945040  0.73937446  0.25593637     0.01440
H2351       H  0.09265930  0.70249515  0.25111857     0.14420
H2352       H  0.20414009  0.78297911  0.27117788     0.14420
C2353       C  0.23102244  0.74361209  0.24965258     0.36070
C2354       C  0.06317272  0.74971511  0.26945731     0.35980
N2355       N  0.26480352  0.75032989  0.24554417    -0.44270
N2356       N  0.02688324  0.74979145  0.27040477    -0.44270
C2357       C  0.99170654  0.90551520  0.24813902    -0.00680
C2358       C  0.45299421  0.90014375  0.25613736    -0.12550
C2359       C  0.44580006  0.87092702  0.26626727     0.01560
C2360       C  0.47906016  0.84831940  0.27037228    -0.00770
C2361       C  0.01783612  0.85298580  0.26240517    -0.12490
C2362       C  0.02395419  0.88060078  0.25127369     0.01440
H2363       H  0.42723314  0.91774615  0.25460755     0.14420
H2364       H  0.04407807  0.83529281  0.26492398     0.14420
C2365       C  0.06332747  0.88215383  0.24282227     0.36070
C2366       C  0.40363381  0.86362977  0.27170918     0.35980
N2367       N  0.09477324  0.88318218  0.23599929    -0.44270
N2368       N  0.37000400  0.85696141  0.27598332    -0.44270
C2369       C  0.46358056  0.58110830  0.39899883    -0.00680
C2370       C  0.42264356  0.57206908  0.40392630    -0.12550
C2371       C  0.39102083  0.56330362  0.39275660     0.01560
C2372       C  0.40030365  0.56271656  0.37634382    -0.00770
C2373       C  0.44112619  0.57121664  0.37142657    -0.12490
C2374       C  0.47268043  0.58010067  0.38246998     0.01440
H2375       H  0.41510538  0.57246229  0.41651369     0.14420
H2376       H  0.44820451  0.57147379  0.35877860     0.14420
C2377       C  0.01428670  0.58695436  0.37636207     0.36070
C2378       C  0.34869789  0.55723836  0.39826258     0.35980
N2379       N  0.04751526  0.59228375  0.37134050    -0.44270
N2380       N  0.31464907  0.55264317  0.40259828    -0.44270
C2381       C  0.20841634  0.55898345  0.37084880    -0.00680
C2382       C  0.18375613  0.52886170  0.37470993    -0.12550
C2383       C  0.14862704  0.53154016  0.38474385     0.01560
C2384       C  0.13813841  0.56467992  0.39115395    -0.00770
C2385       C  0.16035342  0.59497769  0.38611090    -0.12490
C2386       C  0.19491373  0.59263286  0.37616604     0.01440
H2387       H  0.19255024  0.50302731  0.37029058     0.14420
H2388       H  0.15153007  0.62088411  0.39050662     0.14420
C2389       C  0.21558520  0.62560538  0.37182955     0.36070
C2390       C  0.12492448  0.49999257  0.38867979     0.35980
N2391       N  0.23197420  0.65207750  0.36840270    -0.44270
N2392       N  0.10556666  0.97475628  0.39165977    -0.44270
C2393       C  0.24702655  0.64035010  0.24540521    -0.00680
C2394       C  0.22294791  0.60831498  0.24567750    -0.12550
C2395       C  0.22475384  0.58356902  0.25864360     0.01560
C2396       C  0.24976188  0.59081955  0.27209929    -0.00770
C2397       C  0.26877083  0.62503109  0.27257210    -0.12490
C2398       C  0.26982206  0.64848747  0.25929138     0.01440
H2399       H  0.20376297  0.60173044  0.23536826     0.14420
H2400       H  0.28606865  0.63296354  0.28300163     0.14420
C2401       C  0.29978044  0.67723367  0.25953448     0.36070
C2402       C  0.19926467  0.55196470  0.25821677     0.35980
N2403       N  0.32513248  0.69926783  0.25990608    -0.44270
N2404       N  0.17824904  0.52688553  0.25800394    -0.44270
C2405       C  0.46146096  0.71206263  0.31653601    -0.00680
C2406       C  0.45022268  0.69171661  0.30338573    -0.12550
C2407       C  0.42604511  0.66127377  0.30521748     0.01560
C2408       C  0.41218677  0.65110485  0.32058151    -0.00770
C2409       C  0.42526280  0.67065261  0.33388671    -0.12490
C2410       C  0.45039297  0.70079252  0.33198024     0.01440
H2411       H  0.45988126  0.70011692  0.29150277     0.14420
H2412       H  0.41538330  0.66253590  0.34576320     0.14420
C2413       C  0.46659416  0.71803197  0.34596812     0.36070
C2414       C  0.41492411  0.64284701  0.29084741     0.35980
N2415       N  0.48034078  0.73080240  0.35733707    -0.44270
N2416       N  0.40810319  0.62976299  0.27870435    -0.44270
C2417       C  0.14520473  0.91468340  0.31359449    -0.00680
C2418       C  0.13253800  0.95011561  0.31523413    -0.12550
C2419       C  0.16256052  0.97713637  0.31721820     0.01560
C2420       C  0.20577884  0.96824709  0.31849362    -0.00770
C2421       C  0.21816314  0.93329925  0.31602756    -0.12490
C2422       C  0.18873848  0.90678658  0.31343959     0.01440
H2423       H  0.09922068  0.95649792  0.31542531     0.14420
H2424       H  0.25141222  0.92640670  0.31642145     0.14420
C2425       C  0.20557007  0.87160722  0.31212032     0.36070
C2426       C  0.14780006  0.51318723  0.31820325     0.35980
N2427       N  0.22247887  0.84448247  0.31159212    -0.44270
N2428       N  0.13464868  0.54182062  0.31856323    -0.44270
C2429       C  0.22602451  0.65980359  0.31646098    -0.00680
C2430       C  0.23571733  0.69235126  0.30936740    -0.12550
C2431       C  0.20593857  0.71955505  0.30848859     0.01560
C2432       C  0.16388610  0.71339659  0.31339101    -0.00770
C2433       C  0.15338758  0.68003048  0.31970477    -0.12490
C2434       C  0.18434326  0.65375470  0.32190004     0.01440
H2435       H  0.26779222  0.69754432  0.30563694     0.14420
H2436       H  0.12156233  0.67521028  0.32377368     0.14420
C2437       C  0.17279674  0.62200885  0.33070331     0.36070
C2438       C  0.22170301  0.75345919  0.30324842     0.35980
N2439       N  0.16351249  0.59727631  0.33826480    -0.44270
N2440       N  0.23869943  0.77903638  0.29905389    -0.44270
C2441       C  0.40075805  0.96398090  0.31675226    -0.00680
C2442       C  0.43560013  0.96875048  0.32720988    -0.12550
C2443       C  0.47183883  0.94751702  0.32660380     0.01560
C2444       C  0.47468323  0.92040334  0.31528253    -0.00770
C2445       C  0.44201564  0.91806204  0.30376656    -0.12490
C2446       C  0.40540404  0.93955474  0.30434680     0.01440
H2447       H  0.43426384  0.98861381  0.33640468     0.14420
H2448       H  0.44391358  0.89789584  0.29493178     0.14420
C2449       C  0.37250197  0.93527189  0.29254148     0.36070
C2450       C  0.50527983  0.95361727  0.33809253     0.35980
N2451       N  0.34580728  0.93262795  0.28311014    -0.44270
N2452       N  0.03205708  0.95847092  0.34729163    -0.44270
C2453       C  0.36973519  0.53828866  0.27059934    -0.00680
C2454       C  0.40227072  0.51359314  0.27285045    -0.12550
C2455       C  0.41296864  0.98928342  0.26097948     0.01560
C2456       C  0.38466838  0.98223025  0.24788627    -0.00770
C2457       C  0.35058885  0.00617490  0.24623349    -0.12490
C2458       C  0.34591395  0.53566490  0.25632327     0.01440
H2459       H  0.42216779  0.51566113  0.28343785     0.14420
H2460       H  0.33149479  0.00530985  0.23543925     0.14420
C2461       C  0.32679383  0.56648397  0.24912187     0.36070
C2462       C  0.45660061  0.97912618  0.26173524     0.35980
N2463       N  0.31503605  0.59075100  0.24170104    -0.44270
N2464       N  0.49230339  0.97399961  0.26356245    -0.44270
O2465       O  0.85411798  0.04144850  0.29809889    -0.80660
O2466       O  0.86101763  0.08796939  0.35548539    -0.80690
O2467       O  0.87803391  0.09644628  0.31529539    -0.80690
O2468       O  0.85948968  0.49741082  0.33398177    -0.80640
O2469       O  0.84819480  0.13305454  0.33153079    -0.80760
O2470       O  0.82923101  0.48819615  0.31041834    -0.80680
O2471       O  0.84500660  0.03255570  0.36211013    -0.80660
O2472       O  0.83968500  0.08958220  0.28529003    -0.80700
C2473       C  0.85583407  0.05858381  0.28498889     1.09030
C2474       C  0.86696874  0.06050859  0.36391260     1.08910
C2475       C  0.87894022  0.12479568  0.32292602     1.09050
C2476       C  0.86080210  0.48404157  0.32025883     1.08930
O2477       O  0.74022569  0.52377967  0.31610932    -0.80660
O2478       O  0.75917349  0.11748886  0.33299026    -0.80740
O2479       O  0.76164320  0.07888761  0.29959294    -0.80680
O2480       O  0.75518009  0.02664143  0.35435474    -0.80660
O2481       O  0.77297105  0.08084732  0.36066165    -0.80710
O2482       O  0.77320655  0.03351158  0.28537349    -0.80670
O2483       O  0.77162529  0.48304983  0.33028253    -0.80630
O2484       O  0.79307636  0.13193763  0.31108941    -0.80700
Co2485     Co  0.79674707  0.03591474  0.30803294     1.51530
Co2486     Co  0.80986717  0.10152994  0.34398516     1.51690
Co2487     Co  0.82095944  0.08364372  0.30812579     1.51570
Co2488     Co  0.80846061  0.01316344  0.34415734     1.51470
O2489       O  0.81094782  0.05814956  0.32959055    -1.42600
C2490       C  0.73956374  0.49352240  0.32238711     1.08950
C2491       C  0.76100343  0.13504538  0.32013996     1.09040
C2492       C  0.75811068  0.06519249  0.28604106     1.08980
C2493       C  0.74742506  0.05523716  0.36128692     1.08960
O2494       O  0.01604043  0.37081068  0.30609725    -0.80660
O2495       O  0.65942193  0.30944243  0.29432086    -0.80690
O2496       O  0.60227572  0.37846996  0.32968793    -0.80690
O2497       O  0.51204451  0.30683473  0.28720553    -0.80640
O2498       O  0.60629826  0.36494492  0.30444616    -0.80760
O2499       O  0.95316076  0.32919934  0.29638562    -0.80680
O2500       O  0.59488813  0.30833397  0.28694661    -0.80660
O2501       O  0.51717265  0.38095020  0.33133504    -0.80700
C2502       C  0.00625193  0.39079269  0.31736726     1.09030
C2503       C  0.63185257  0.29831873  0.28434020     1.08910
C2504       C  0.61415282  0.38601617  0.31561533     1.09050
C2505       C  0.97869430  0.32508604  0.28487134     1.08930
O2506       O  0.97518829  0.27381099  0.31693360    -0.80660
O2507       O  0.65187752  0.32768116  0.33033457    -0.80740
O2508       O  0.51582464  0.31385828  0.34793612    -0.80680
O2509       O  0.60050311  0.23910500  0.30292619    -0.80660
O2510       O  0.63606891  0.26924113  0.31978230    -0.80710
O2511       O  0.96751346  0.33123775  0.33043455    -0.80670
O2512       O  0.51922295  0.23924950  0.30540276    -0.80630
O2513       O  0.60276930  0.31170096  0.34720573    -0.80700
Co2514     Co  0.00022942  0.32047358  0.31074037     1.51530
Co2515     Co  0.61640576  0.31512943  0.31110898     1.51690
Co2516     Co  0.55952057  0.34326435  0.33789428     1.51570
Co2517     Co  0.55615492  0.27583122  0.29759630     1.51470
O2518       O  0.55758719  0.30762301  0.31922679    -1.42600
C2519       C  0.98692000  0.24332845  0.31326046     1.08950
C2520       C  0.64065012  0.31956069  0.34449345     1.09040
C2521       C  0.97760838  0.32035156  0.34445935     1.08980
C2522       C  0.63138087  0.24143198  0.31228152     1.08960
O2523       O  0.98586327  0.45880290  0.23039647    -0.80660
O2524       O  0.96865567  0.39103885  0.15748805    -0.80690
O2525       O  0.96479630  0.35735948  0.20281856    -0.80690
O2526       O  0.97552621  0.00445936  0.17679044    -0.80640
O2527       O  0.00233867  0.39041555  0.18740453    -0.80760
O2528       O  0.01071685  0.98796562  0.19862165    -0.80680
O2529       O  0.99359402  0.44169037  0.16562584    -0.80660
O2530       O  0.98896620  0.40683370  0.22091131    -0.80700
C2531       C  0.49179657  0.42562007  0.23259285     1.09030
C2532       C  0.49700155  0.41478735  0.15649772     1.08910
C2533       C  0.99930865  0.36217109  0.19552201     1.09050
C2534       C  0.50734427  0.00716809  0.18610076     1.08930
O2535       O  0.92578259  0.01981550  0.19670500    -0.80660
O2536       O  0.91206499  0.36851775  0.18191534    -0.80740
O2537       O  0.90367965  0.43096404  0.23028480    -0.80680
O2538       O  0.92163382  0.47385035  0.15357730    -0.80660
O2539       O  0.89511134  0.42669273  0.16539939    -0.80710
O2540       O  0.90672325  0.48618246  0.22180594    -0.80670
O2541       O  0.88677335  0.98400512  0.18283303    -0.80630
O2542       O  0.87892921  0.38694080  0.20327885    -0.80700
Co2543     Co  0.95841935  0.48442938  0.21060400     1.51530
Co2544     Co  0.94969000  0.41067042  0.17752037     1.51690
Co2545     Co  0.93300478  0.39832141  0.21333156     1.51570
Co2546     Co  0.93876943  0.46104520  0.17525480     1.51470
O2547       O  0.94261515  0.43942562  0.19753853    -1.42600
C2548       C  0.89091114  0.01281418  0.18992273     1.08950
C2549       C  0.87979833  0.36801824  0.19087928     1.09040
C2550       C  0.89820340  0.46457761  0.23258262     1.08980
C2551       C  0.89272923  0.45057002  0.15421321     1.08960
O2552       O  0.74594822  0.19472750  0.22822978    -0.80660
O2553       O  0.71278057  0.14574927  0.15404407    -0.80690
O2554       O  0.71455977  0.10268463  0.19723848    -0.80690
O2555       O  0.72394296  0.25556508  0.17821846    -0.80640
O2556       O  0.75132829  0.13889437  0.18293418    -0.80760
O2557       O  0.76305451  0.23439686  0.19819087    -0.80680
O2558       O  0.73866033  0.19544225  0.16318015    -0.80660
O2559       O  0.74459575  0.14392700  0.21774717    -0.80700
C2560       C  0.74970453  0.16115786  0.22982240     1.09030
C2561       C  0.74063548  0.16983558  0.15318543     1.08910
C2562       C  0.74842486  0.10926536  0.18997839     1.09050
C2563       C  0.75716727  0.25676825  0.18691937     1.08930
O2564       O  0.67755072  0.26580431  0.20047103    -0.80660
O2565       O  0.66061118  0.11937219  0.17849516    -0.80740
O2566       O  0.66474343  0.16655297  0.23084656    -0.80680
O2567       O  0.66487395  0.23082923  0.15522950    -0.80660
O2568       O  0.64224835  0.17991678  0.16478273    -0.80710
O2569       O  0.66277292  0.22184523  0.22290397    -0.80670
O2570       O  0.63571702  0.23417373  0.18574421    -0.80630
O2571       O  0.63113653  0.13212330  0.20165177    -0.80700
Co2572     Co  0.71318101  0.22604222  0.21110203     1.51530
Co2573     Co  0.69810438  0.16151358  0.17510320     1.51690
Co2574     Co  0.68722954  0.13984032  0.21084360     1.51570
Co2575     Co  0.68619635  0.21273849  0.17560114     1.51470
O2576       O  0.69481842  0.18501809  0.19649653    -1.42600
C2577       C  0.64135086  0.26124382  0.19409816     1.08950
C2578       C  0.63098344  0.11566227  0.18852266     1.09040
C2579       C  0.66113940  0.19970669  0.23390321     1.08980
C2580       C  0.63781352  0.20601794  0.15473868     1.08960
O2581       O  0.96466289  0.22682385  0.11077424    -0.80660
O2582       O  0.97212359  0.16829826  0.03543996    -0.80690
O2583       O  0.96965928  0.11623426  0.08755336    -0.80690
O2584       O  0.96223366  0.26513305  0.06630106    -0.80640
O2585       O  0.99901486  0.13007071  0.06431129    -0.80760
O2586       O  0.99888437  0.22912946  0.08125007    -0.80680
O2587       O  0.98628259  0.21586609  0.04758127    -0.80660
O2588       O  0.98759082  0.17594151  0.10206433    -0.80700
C2589       C  0.99155807  0.20179878  0.11184559     1.09030
C2590       C  0.98708370  0.19978530  0.03503462     1.08910
C2591       C  0.99997893  0.11359056  0.07764429     1.09050
C2592       C  0.99611694  0.25816703  0.07375823     1.08930
O2593       O  0.90932114  0.25336612  0.08622822    -0.80660
O2594       O  0.91457026  0.10312264  0.06790921    -0.80740
O2595       O  0.91418347  0.14346367  0.11193547    -0.80680
O2596       O  0.90040167  0.20030510  0.03545496    -0.80660
O2597       O  0.88770836  0.15149787  0.04786817    -0.80710
O2598       O  0.89097408  0.19394913  0.10157533    -0.80670
O2599       O  0.87663194  0.24038212  0.06339599    -0.80630
O2600       O  0.87888730  0.13853628  0.08258041    -0.80700
Co2601     Co  0.94551931  0.20982091  0.09022411     1.51530
Co2602     Co  0.94435255  0.14121176  0.05492768     1.51690
Co2603     Co  0.93234034  0.15916682  0.09092124     1.51570
Co2604     Co  0.93034687  0.22744108  0.05422777     1.51470
O2605       O  0.93749664  0.18433521  0.06954921    -1.42600
C2606       C  0.87871471  0.25740095  0.07628833     1.08950
C2607       C  0.88125196  0.10974358  0.07539482     1.09040
C2608       C  0.88733459  0.16872230  0.11207227     1.08980
C2609       C  0.88576262  0.16864764  0.03526621     1.08960
O2610       O  0.67055323  0.38960655  0.11378403    -0.80660
O2611       O  0.64214206  0.45144860  0.03867954    -0.80690
O2612       O  0.65519842  0.00088649  0.09054964    -0.80690
O2613       O  0.66761328  0.35348310  0.06941381    -0.80640
O2614       O  0.61959464  0.98519924  0.06885802    -0.80760
O2615       O  0.63196233  0.38677326  0.08483261    -0.80680
O2616       O  0.63665719  0.40119252  0.05044068    -0.80660
O2617       O  0.64249156  0.43927633  0.10465239    -0.80700
C2618       C  0.64235262  0.41347175  0.11492551     1.09030
C2619       C  0.63134324  0.41883945  0.03814413     1.08910
C2620       C  0.62265446  0.00309900  0.08147610     1.09050
C2621       C  0.63421994  0.35871715  0.07709203     1.08930
O2622       O  0.72337025  0.36659752  0.08834438    -0.80660
O2623       O  0.70376202  0.01746407  0.06937215    -0.80740
O2624       O  0.71450782  0.47371149  0.11380253    -0.80680
O2625       O  0.71874246  0.42302474  0.03729470    -0.80660
O2626       O  0.72630649  0.47482760  0.04774399    -0.80710
O2627       O  0.74106583  0.42610573  0.10300132    -0.80670
O2628       O  0.75062650  0.38309974  0.06505969    -0.80630
O2629       O  0.74450668  0.98318422  0.08373015    -0.80700
Co2630     Co  0.68537443  0.40820063  0.09271695     1.51530
Co2631     Co  0.67219665  0.47886418  0.05736395     1.51690
Co2632     Co  0.69454397  0.45905040  0.09298043     1.51570
Co2633     Co  0.69449156  0.39324707  0.05655075     1.51470
O2634       O  0.68762320  0.43526310  0.07168436    -1.42600
C2635       C  0.75236119  0.36473568  0.07792303     1.08950
C2636       C  0.73908904  0.01221048  0.07630330     1.09040
C2637       C  0.74367203  0.45052305  0.11350864     1.08980
C2638       C  0.72898028  0.45587343  0.03597448     1.08960
O2639       O  0.51684433  0.27704581  0.96762790    -0.80660
O2640       O  0.51702026  0.32254771  0.91368899    -0.80690
O2641       O  0.50132124  0.36830297  0.95069112    -0.80690
O2642       O  0.50860152  0.26622553  0.93363131    -0.80640
O2643       O  0.53456691  0.38306801  0.92836094    -0.80760
O2644       O  0.54781317  0.23159891  0.94817551    -0.80680
O2645       O  0.54241698  0.27272892  0.90432826    -0.80660
O2646       O  0.52450699  0.32698647  0.97928636    -0.80700
C2647       C  0.51142511  0.29471171  0.97961644     1.09030
C2648       C  0.51420175  0.29691960  0.90370442     1.08910
C2649       C  0.50366079  0.38628996  0.93779516     1.09050
C2650       C  0.51333665  0.23703423  0.94085633     1.08930
O2651       O  0.62935937  0.26443132  0.95237011    -0.80660
O2652       O  0.62391587  0.36026042  0.93437387    -0.80740
O2653       O  0.61085800  0.34670525  0.96918884    -0.80680
O2654       O  0.61422794  0.30832575  0.91406708    -0.80660
O2655       O  0.58857580  0.35856495  0.90464997    -0.80710
O2656       O  0.59868605  0.29752822  0.98108663    -0.80670
O2657       O  0.60133061  0.24838079  0.92920852    -0.80630
O2658       O  0.58711529  0.39483744  0.94899480    -0.80700
Co2659     Co  0.57407945  0.27085677  0.96121356     1.51530
Co2660     Co  0.57101999  0.34010285  0.92522929     1.51690
Co2661     Co  0.55502231  0.35632698  0.96103855     1.51570
Co2662     Co  0.56035977  0.28917469  0.92514716     1.51470
O2663       O  0.56450995  0.31418725  0.94621699    -1.42600
C2664       C  0.63153479  0.24728250  0.93953281     1.08950
C2665       C  0.62132389  0.38847639  0.94198478     1.09040
C2666       C  0.61203699  0.32941148  0.98173514     1.08980
C2667       C  0.61712691  0.33500047  0.90426461     1.08960
O2668       O  0.86671941  0.09462083  0.96677335    -0.80660
O2669       O  0.86221798  0.05873740  0.91246980    -0.80690
O2670       O  0.88094742  0.01153453  0.94903856    -0.80690
O2671       O  0.87386448  0.11133726  0.93229791    -0.80640
O2672       O  0.84733127  0.99734972  0.92667881    -0.80760
O2673       O  0.83887290  0.14425606  0.94818520    -0.80680
O2674       O  0.83474817  0.10852528  0.90310973    -0.80660
O2675       O  0.85705344  0.04542472  0.97884893    -0.80700
C2676       C  0.86931758  0.07763749  0.97932941     1.09030
C2677       C  0.86363184  0.08516021  0.90249934     1.08910
C2678       C  0.87926791  0.49465647  0.93608349     1.09050
C2679       C  0.87203313  0.13901922  0.94041748     1.08930
O2680       O  0.75481534  0.11704740  0.95131379    -0.80660
O2681       O  0.75748311  0.01744907  0.93324270    -0.80740
O2682       O  0.77275960  0.02488664  0.96828673    -0.80680
O2683       O  0.76360030  0.07363408  0.91390293    -0.80660
O2684       O  0.78801163  0.02507824  0.90331907    -0.80710
O2685       O  0.78257005  0.07554873  0.97933403    -0.80670
O2686       O  0.78388410  0.13371442  0.92839443    -0.80630
O2687       O  0.79686836  0.98142982  0.94703799    -0.80700
Co2688     Co  0.80963592  0.10495813  0.96041876     1.51530
Co2689     Co  0.80884427  0.03985626  0.92401129     1.51690
Co2690     Co  0.82786076  0.01910934  0.95965556     1.51570
Co2691     Co  0.81964679  0.09057838  0.92419002     1.51470
O2692       O  0.81631994  0.06343191  0.94521540    -1.42600
C2693       C  0.75594339  0.13742350  0.93908636     1.08950
C2694       C  0.76147825  0.48821929  0.94053762     1.09040
C2695       C  0.77051043  0.04309169  0.98026252     1.08980
C2696       C  0.75890743  0.04840076  0.90385098     1.08960
O2697       O  0.57495041  0.05345529  0.40678997    -0.80660
O2698       O  0.60987183  0.12461561  0.46822827    -0.80690
O2699       O  0.62322720  0.14608257  0.43350229    -0.80690
O2700       O  0.62809717  0.03287888  0.45430452    -0.80640
O2701       O  0.58047818  0.17299366  0.44900148    -0.80760
O2702       O  0.60353288  0.02108002  0.43086487    -0.80680
O2703       O  0.59738164  0.07283179  0.47845524    -0.80660
O2704       O  0.62019841  0.09215165  0.41476847    -0.80700
C2705       C  0.60969284  0.06946189  0.40480901     1.09030
C2706       C  0.61310184  0.10370746  0.47971132     1.08910
C2707       C  0.61609525  0.17126336  0.44259350     1.09050
C2708       C  0.63234687  0.01828074  0.44123546     1.08930
O2709       O  0.52444435  0.00650775  0.42174531    -0.80660
O2710       O  0.50022937  0.13483901  0.44853322    -0.80740
O2711       O  0.53005265  0.10530274  0.40763617    -0.80680
O2712       O  0.51377934  0.05828358  0.46311396    -0.80660
O2713       O  0.52618512  0.10200549  0.47751365    -0.80710
O2714       O  0.49589923  0.07279828  0.42463435    -0.80670
O2715       O  0.53660244  0.00733517  0.44775577    -0.80630
O2716       O  0.53166484  0.15916903  0.42770493    -0.80700
Co2717     Co  0.54966073  0.04858346  0.42915127     1.51530
Co2718     Co  0.55417684  0.12898291  0.45883696     1.51690
Co2719     Co  0.57649827  0.12334984  0.42230003     1.51570
Co2720     Co  0.57115538  0.04725640  0.45896654     1.51470
O2721       O  0.57021699  0.08989764  0.44207950    -1.42600
C2722       C  0.51839404  0.99356038  0.43551138     1.08950
C2723       C  0.50070352  0.15696393  0.43717515     1.09040
C2724       C  0.49697003  0.08820581  0.41122813     1.08980
C2725       C  0.51112879  0.07133043  0.47631087     1.08960
O2726       O  0.85826945  0.29626964  0.40716344    -0.80660
O2727       O  0.80572674  0.38436819  0.47207786    -0.80690
O2728       O  0.86981843  0.38456083  0.42149229    -0.80690
O2729       O  0.87658776  0.28898640  0.44785329    -0.80640
O2730       O  0.84609168  0.39985250  0.44466865    -0.80760
O2731       O  0.83814754  0.25586813  0.43222822    -0.80680
O2732       O  0.86203021  0.35413536  0.46539848    -0.80660
O2733       O  0.83930837  0.34800608  0.39703022    -0.80700
C2734       C  0.86176919  0.32036095  0.39669611     1.09030
C2735       C  0.84406224  0.37731760  0.47462597     1.08910
C2736       C  0.87587073  0.39917596  0.43452474     1.09050
C2737       C  0.87263521  0.26215195  0.43914897     1.08930
O2738       O  0.75142152  0.28117529  0.42877072    -0.80660
O2739       O  0.75297675  0.38370391  0.44594801    -0.80740
O2740       O  0.75633537  0.36512000  0.40631158    -0.80680
O2741       O  0.82840665  0.29539752  0.47545562    -0.80660
O2742       O  0.77043488  0.32280385  0.46695662    -0.80710
O2743       O  0.77125072  0.30975886  0.40064089    -0.80670
O2744       O  0.78650009  0.27018943  0.45072135    -0.80630
O2745       O  0.78681695  0.41296927  0.42727382    -0.80700
Co2746     Co  0.80493675  0.28906579  0.41843418     1.51530
Co2747     Co  0.80505759  0.35974438  0.45265033     1.51690
Co2748     Co  0.81323344  0.37465269  0.41462978     1.51570
Co2749     Co  0.82553381  0.31387201  0.45433737     1.51470
O2750       O  0.81225051  0.33393755  0.43177247    -1.42600
C2751       C  0.75303246  0.26764460  0.44243756     1.08950
C2752       C  0.75597259  0.40985396  0.43650690     1.09040
C2753       C  0.74941939  0.33742624  0.39851304     1.08980
C2754       C  0.78962392  0.30166518  0.47741510     1.08960
O2755       O  0.89318625  0.48347373  0.53437873    -0.80660
O2756       O  0.91778797  0.41797638  0.60874430    -0.80690
O2757       O  0.91305151  0.38137641  0.56417177    -0.80690
O2758       O  0.90982305  0.02993408  0.58593095    -0.80640
O2759       O  0.87902974  0.41538820  0.57977328    -0.80760
O2760       O  0.87404812  0.01785593  0.56389808    -0.80680
O2761       O  0.89135286  0.46801173  0.59949015    -0.80660
O2762       O  0.88449976  0.43084857  0.54430668    -0.80700
C2763       C  0.88144891  0.45142566  0.53262656     1.09030
C2764       C  0.88930856  0.44177020  0.60953118     1.08910
C2765       C  0.88021036  0.38719345  0.57205971     1.09050
C2766       C  0.87687482  0.03325680  0.57714398     1.08930
O2767       O  0.96094367  0.04371516  0.56496150    -0.80660
O2768       O  0.97002270  0.39243715  0.58336624    -0.80740
O2769       O  0.96678881  0.44860988  0.53230377    -0.80680
O2770       O  0.96554579  0.49915690  0.60912050    -0.80660
O2771       O  0.99024114  0.45118803  0.59813161    -0.80710
O2772       O  0.97938573  0.99850699  0.54352485    -0.80670
O2773       O  0.99771345  0.00635068  0.57921311    -0.80630
O2774       O  0.99693866  0.40914096  0.56014349    -0.80700
Co2775     Co  0.92601604  0.00768597  0.55287605     1.51530
Co2776     Co  0.93359700  0.43537567  0.58774023     1.51690
Co2777     Co  0.94139752  0.42047822  0.55141515     1.51570
Co2778     Co  0.94518883  0.98551545  0.58818169     1.51470
O2779       O  0.93633709  0.46262515  0.56677683    -1.42600
C2780       C  0.99539615  0.03558484  0.57186943     1.08950
C2781       C  0.99903856  0.39059239  0.57293138     1.09040
C2782       C  0.97796334  0.48101489  0.53127308     1.08980
C2783       C  0.99399896  0.47543317  0.60868316     1.08960
O2784       O  0.72904264  0.19053906  0.53618104    -0.80660
O2785       O  0.71108224  0.25338450  0.61049939    -0.80690
O2786       O  0.70856337  0.29029032  0.56511694    -0.80690
O2787       O  0.72155386  0.14317379  0.58904478    -0.80640
O2788       O  0.74621248  0.25692803  0.58094047    -0.80760
O2789       O  0.75502646  0.15818565  0.56684774    -0.80680
O2790       O  0.73729733  0.20418720  0.60137563    -0.80660
O2791       O  0.73431013  0.24378618  0.54510371    -0.80700
C2792       C  0.73861892  0.22314389  0.53392805     1.09030
C2793       C  0.73893282  0.22901578  0.61162297     1.08910
C2794       C  0.74277074  0.28484483  0.57263346     1.09050
C2795       C  0.75331451  0.14091758  0.57996758     1.08930
O2796       O  0.67114747  0.12693368  0.56860406    -0.80660
O2797       O  0.65542275  0.27878013  0.58515592    -0.80740
O2798       O  0.65066136  0.22195227  0.53544782    -0.80680
O2799       O  0.66606292  0.17129218  0.61206504    -0.80660
O2800       O  0.63833812  0.21865775  0.60042111    -0.80710
O2801       O  0.64607227  0.16815561  0.54550963    -0.80670
O2802       O  0.63202053  0.16135915  0.58263632    -0.80630
O2803       O  0.62459803  0.25983967  0.56310862    -0.80700
Co2804     Co  0.70114224  0.16458842  0.55545986     1.51530
Co2805     Co  0.69322323  0.23604191  0.58962862     1.51690
Co2806     Co  0.67872306  0.25086654  0.55336041     1.51570
Co2807     Co  0.68335825  0.18537590  0.59078553     1.51470
O2808       O  0.68848414  0.20881287  0.56896557    -1.42600
C2809       C  0.63689173  0.13238034  0.57575180     1.08950
C2810       C  0.62547860  0.28058352  0.57480118     1.09040
C2811       C  0.63923299  0.18958616  0.53433605     1.08980
C2812       C  0.63648742  0.19411408  0.61128443     1.08960
O2813       O  0.91572873  0.24977855  0.65298540    -0.80660
O2814       O  0.90535526  0.19174301  0.72831518    -0.80690
O2815       O  0.91098425  0.13807325  0.67765466    -0.80690
O2816       O  0.92292129  0.28881335  0.69627486    -0.80640
O2817       O  0.88072009  0.15303512  0.70016621    -0.80760
O2818       O  0.88375637  0.25397491  0.68260685    -0.80680
O2819       O  0.89635479  0.24294609  0.71688532    -0.80660
O2820       O  0.89142707  0.19957700  0.66297392    -0.80700
C2821       C  0.88737585  0.22588178  0.65297116     1.09030
C2822       C  0.89387415  0.22431581  0.72901715     1.08910
C2823       C  0.88042808  0.13549500  0.68740902     1.09050
C2824       C  0.88792155  0.28299807  0.68953290     1.08930
O2825       O  0.97442935  0.27431988  0.67665843    -0.80660
O2826       O  0.96666121  0.12586192  0.69813800    -0.80740
O2827       O  0.96334271  0.16602431  0.65275071    -0.80680
O2828       O  0.97942848  0.22284437  0.72901334    -0.80660
O2829       O  0.99048489  0.17428052  0.71735068    -0.80710
O2830       O  0.98936674  0.21516451  0.66248619    -0.80670
O2831       O  0.00652138  0.25896196  0.69948027    -0.80630
O2832       O  0.00080528  0.16066184  0.68214535    -0.80700
Co2833     Co  0.93554803  0.23253761  0.67369293     1.51530
Co2834     Co  0.93475963  0.16395857  0.70991644     1.51690
Co2835     Co  0.94691643  0.18168864  0.67375823     1.51570
Co2836     Co  0.95238921  0.25012854  0.70927482     1.51470
O2837       O  0.94270702  0.20684226  0.69479726    -1.42600
C2838       C  0.00568427  0.27649845  0.68638145     1.08950
C2839       C  0.99987930  0.13264798  0.69044765     1.09040
C2840       C  0.99173537  0.18983354  0.65246441     1.08980
C2841       C  0.99048258  0.19033285  0.72992483     1.08960
O2842       O  0.61101081  0.07420071  0.85250669    -0.80660
O2843       O  0.60225845  0.03588307  0.79460215    -0.80690
O2844       O  0.61687851  0.52329692  0.83136953    -0.80690
O2845       O  0.62540410  0.12338462  0.81547579    -0.80640
O2846       O  0.57777916  0.49130452  0.81598376    -0.80760
O2847       O  0.59656424  0.13729016  0.83853912    -0.80680
O2848       O  0.59636658  0.09062606  0.78609890    -0.80660
O2849       O  0.58264122  0.02426319  0.86093469    -0.80700
C2850       C  0.61186769  0.04703423  0.86212197     1.09030
C2851       C  0.60835338  0.05845622  0.78397163     1.08910
C2852       C  0.61258075  0.49587816  0.82323861     1.09050
C2853       C  0.62580402  0.14091924  0.82825961     1.08930
O2854       O  0.50479059  0.11910398  0.83304105    -0.80660
O2855       O  0.49391480  0.52452363  0.81459902    -0.80740
O2856       O  0.51183094  0.06314175  0.85178267    -0.80680
O2857       O  0.51315433  0.11138913  0.79837874    -0.80660
O2858       O  0.51908333  0.06284160  0.78576746    -0.80710
O2859       O  0.54092299  0.10986869  0.86255473    -0.80670
O2860       O  0.54253528  0.15483004  0.81894843    -0.80630
O2861       O  0.52687583  0.50421228  0.83638442    -0.80700
Co2862     Co  0.55736104  0.09525460  0.84138494     1.51530
Co2863     Co  0.54751249  0.03177666  0.80402011     1.51690
Co2864     Co  0.56558249  0.04491186  0.84048576     1.51570
Co2865     Co  0.57028726  0.11684219  0.80566385     1.51470
O2866       O  0.56127596  0.07245084  0.81965241    -1.42600
C2867       C  0.50827828  0.14860901  0.82600773     1.08950
C2868       C  0.49542843  0.50436236  0.82682171     1.09040
C2869       C  0.51095402  0.08751277  0.86236503     1.08980
C2870       C  0.50785923  0.09547863  0.78587352     1.08960
O2871       O  0.71590947  0.41305869  0.65232509    -0.80660
O2872       O  0.73219266  0.47043983  0.72759653    -0.80690
O2873       O  0.72613400  0.02344759  0.67473772    -0.80690
O2874       O  0.71310465  0.37496403  0.69644923    -0.80640
O2875       O  0.75788458  0.00439141  0.69704388    -0.80760
O2876       O  0.75049837  0.41052636  0.68207528    -0.80680
O2877       O  0.73990485  0.42175871  0.71569213    -0.80660
O2878       O  0.74180619  0.46276644  0.66118540    -0.80700
C2879       C  0.74383157  0.43707873  0.65133421     1.09030
C2880       C  0.74334324  0.43779844  0.72818696     1.08910
C2881       C  0.75648022  0.02494588  0.68487668     1.09050
C2882       C  0.74702193  0.38125791  0.68924541     1.08930
O2883       O  0.66011959  0.38839917  0.67647600    -0.80660
O2884       O  0.67473955  0.03785010  0.69510377    -0.80740
O2885       O  0.66978086  0.49608027  0.65024844    -0.80680
O2886       O  0.65497645  0.44202684  0.72705070    -0.80660
O2887       O  0.64983705  0.49643596  0.71768129    -0.80710
O2888       O  0.64301070  0.44806441  0.66136770    -0.80670
O2889       O  0.62852994  0.40245468  0.69908504    -0.80630
O2890       O  0.63613931  0.00568926  0.67944090    -0.80700
Co2891     Co  0.69754802  0.43095081  0.67281773     1.51530
Co2892     Co  0.70453930  0.49893221  0.70813077     1.51690
Co2893     Co  0.68749622  0.48155313  0.67166869     1.51570
Co2894     Co  0.68311544  0.41345321  0.70859490     1.51470
O2895       O  0.69028324  0.45666919  0.69351749    -1.42600
C2896       C  0.62995834  0.38489512  0.68633318     1.08950
C2897       C  0.64070846  0.03363194  0.68723173     1.09040
C2898       C  0.64075420  0.47271547  0.65056492     1.08980
C2899       C  0.64287179  0.47446482  0.72852156     1.08960
O2900       O  0.76425101  0.31460795  0.85273351    -0.80660
O2901       O  0.76302815  0.35955156  0.79752701    -0.80690
O2902       O  0.75293069  0.37015297  0.83255187    -0.80690
O2903       O  0.74706149  0.27466820  0.81505677    -0.80640
O2904       O  0.78990191  0.40510167  0.81764412    -0.80760
O2905       O  0.77737217  0.25520215  0.83745158    -0.80680
O2906       O  0.77366106  0.31081608  0.78575831    -0.80660
O2907       O  0.78946197  0.36458265  0.86198566    -0.80700
C2908       C  0.76239545  0.33981156  0.86289333     1.09030
C2909       C  0.76152578  0.34326844  0.78500382     1.08910
C2910       C  0.75574695  0.39886570  0.82476163     1.09050
C2911       C  0.74691548  0.25436741  0.82721614     1.08930
O2912       O  0.86939488  0.27572041  0.83231074    -0.80660
O2913       O  0.87367607  0.37584948  0.81502645    -0.80740
O2914       O  0.86088200  0.32956417  0.85236554    -0.80680
O2915       O  0.85719673  0.28836900  0.79762881    -0.80660
O2916       O  0.84752728  0.33957113  0.78635608    -0.80710
O2917       O  0.83677834  0.27893537  0.86188661    -0.80670
O2918       O  0.83058834  0.24192207  0.81797362    -0.80630
O2919       O  0.84351979  0.39089377  0.83760795    -0.80700
Co2920     Co  0.81733978  0.29685224  0.84117470     1.51530
Co2921     Co  0.81952837  0.36705023  0.80519338     1.51690
Co2922     Co  0.80609057  0.34831463  0.84120796     1.51570
Co2923     Co  0.80109312  0.28188163  0.80523955     1.51470
O2924       O  0.81118153  0.32379806  0.82014813    -1.42600
C2925       C  0.86543031  0.24710960  0.82507897     1.08950
C2926       C  0.87351941  0.39384798  0.82764564     1.09040
C2927       C  0.86457963  0.30329752  0.86242905     1.08980
C2928       C  0.85935876  0.30710305  0.78552729     1.08960
C2929       C  0.75117094  0.41466704  0.74294705    -0.00680
C2930       C  0.74807930  0.37702753  0.74139350    -0.12550
C2931       C  0.75109517  0.35313023  0.75456365     0.01560
C2932       C  0.75638008  0.36622728  0.77003866    -0.00770
C2933       C  0.76062115  0.40380699  0.77152789    -0.12490
C2934       C  0.75894513  0.42758442  0.75829340     0.01440
H2935       H  0.74271736  0.36575895  0.72973089     0.14420
H2936       H  0.76659039  0.41504975  0.78315659     0.14420
C2937       C  0.76776379  0.46470906  0.76067661     0.36070
C2938       C  0.74828671  0.31545892  0.75182063     0.35980
N2939       N  0.77534569  0.49444418  0.76248432    -0.44270
N2940       N  0.74617336  0.28525239  0.74957708    -0.44270
C2941       C  0.62871581  0.49107747  0.74369944    -0.00680
C2942       C  0.65741394  0.49151992  0.75656783    -0.12550
C2943       C  0.65485094  0.51716797  0.76861045     0.01560
C2944       C  0.62214509  0.04290931  0.76850950    -0.00770
C2945       C  0.59335939  0.04255438  0.75563045    -0.12490
C2946       C  0.59647425  0.01734857  0.74336513     0.01440
H2947       H  0.68356114  0.47308559  0.75669128     0.14100
H2948       H  0.56723172  0.06104277  0.75550596     0.14420
C2949       C  0.56573570  0.01860265  0.73052269     0.36070
C2950       C  0.68747696  0.51767171  0.78072173     0.35980
N2951       N  0.54097361  0.01947183  0.72026652    -0.44270
N2952       N  0.71437162  0.51862705  0.79013772    -0.44270
C2953       C  0.90623595  0.42107179  0.82940193    -0.00680
C2954       C  0.94039794  0.41930921  0.81895028    -0.12550
C2955       C  0.96875620  0.44699634  0.81770315     0.01560
C2956       C  0.96522214  0.47588782  0.82794039    -0.00770
C2957       C  0.93259420  0.47754295  0.83892059    -0.12490
C2958       C  0.90212454  0.45083092  0.83941498     0.01440
H2959       H  0.94395928  0.39701102  0.81105099     0.14420
H2960       H  0.92994038  0.50041393  0.84654757     0.14420
C2961       C  0.86613300  0.45603445  0.84949220     0.36070
C2962       C  0.99995567  0.44584426  0.80528043     0.35980
N2963       N  0.83733286  0.46032987  0.85757260    -0.44270
N2964       N  0.52442602  0.44491588  0.79517040    -0.44270
C2965       C  0.65579216  0.17040070  0.82920048    -0.00680
C2966       C  0.66243181  0.18936881  0.81496405    -0.12550
C2967       C  0.69045230  0.21741448  0.81422152     0.01560
C2968       C  0.71370234  0.22694459  0.82809064    -0.00770
C2969       C  0.70623919  0.20850653  0.84255641    -0.12490
C2970       C  0.67683484  0.18070136  0.84327084     0.01440
H2971       H  0.64520543  0.18231451  0.80419706     0.14420
H2972       H  0.72343047  0.21567375  0.85326341     0.14420
C2973       C  0.66965153  0.16282220  0.85836900     0.36070
C2974       C  0.69471667  0.23478964  0.79875599     0.35980
N2975       N  0.66388764  0.14883499  0.87056372    -0.44270
N2976       N  0.69761301  0.24849875  0.78632698    -0.44270
C2977       C  0.64823234  0.47020474  0.82236802    -0.00680
C2978       C  0.68947184  0.48375814  0.82212192    -0.12550
C2979       C  0.72475842  0.46121684  0.82245675     0.01560
C2980       C  0.71938760  0.42400733  0.82364478    -0.00770
C2981       C  0.67812189  0.41037543  0.82399586    -0.12490
C2982       C  0.64275422  0.43297454  0.82323475     0.01440
H2983       H  0.69419655  0.01230539  0.82181661     0.14420
H2984       H  0.67342832  0.38188063  0.82499815     0.14420
C2985       C  0.60155398  0.41734675  0.82484822     0.36070
C2986       C  0.76605024  0.47718311  0.82218366     0.35980
N2987       N  0.56875356  0.40448662  0.82637460    -0.44270
N2988       N  0.79908386  0.49008222  0.82187059    -0.44270
C2989       C  0.90139556  0.22122242  0.82483146    -0.00680
C2990       C  0.94282405  0.23420766  0.82654770    -0.12550
C2991       C  0.97792957  0.21130638  0.82670896     0.01560
C2992       C  0.97223188  0.17426690  0.82548173    -0.00770
C2993       C  0.93088062  0.16116420  0.82391211    -0.12490
C2994       C  0.89577421  0.18414396  0.82337731     0.01440
H2995       H  0.94792556  0.26253281  0.82772886     0.14420
H2996       H  0.92595132  0.13276168  0.82296512     0.14420
C2997       C  0.85432781  0.16880546  0.82185529     0.36070
C2998       C  0.51936485  0.22635701  0.82883755     0.35980
N2999       N  0.82106098  0.15657922  0.82062795    -0.44270
N3000       N  0.55263761  0.23827362  0.83057965    -0.44270
C3001       C  0.88686089  0.24431139  0.74398262    -0.00680
C3002       C  0.85867951  0.23183654  0.75531659    -0.12550
C3003       C  0.84808529  0.25273469  0.76838245     0.01560
C3004       C  0.86618547  0.28724782  0.77049584    -0.00770
C3005       C  0.89437872  0.29973216  0.75914809    -0.12490
C3006       C  0.90517666  0.27872459  0.74612973     0.01440
H3007       H  0.84393439  0.20613586  0.75372657     0.14420
H3008       H  0.90927258  0.32535505  0.76077260     0.14420
C3009       C  0.93693722  0.29306274  0.73564701     0.36070
C3010       C  0.81742090  0.23775101  0.77913913     0.35980
N3011       N  0.96284051  0.30518175  0.72762973    -0.44270
N3012       N  0.79276441  0.22470840  0.78742714    -0.44270
C3013       C  0.60046664  0.35584855  0.68438695    -0.00680
C3014       C  0.56315960  0.36155972  0.67569897    -0.12550
C3015       C  0.53208701  0.33532268  0.67543246     0.01560
C3016       C  0.53931023  0.30249887  0.68357458    -0.00770
C3017       C  0.57797630  0.29638344  0.69140840    -0.12490
C3018       C  0.60804745  0.32301847  0.69223277     0.01440
H3019       H  0.55742009  0.38714778  0.66987955     0.14420
H3020       H  0.58377332  0.27138066  0.69774104     0.14420
C3021       C  0.64496632  0.31669164  0.70215511     0.36070
C3022       C  0.99196205  0.34423238  0.66812032     0.35980
N3023       N  0.67403414  0.31117207  0.71030784    -0.44270
N3024       N  0.95959813  0.35150848  0.66246086    -0.44270
C3025       C  0.78569409  0.05489138  0.68448712    -0.00680
C3026       C  0.80967541  0.06237908  0.67090918    -0.12550
C3027       C  0.84007999  0.08942224  0.67114864     0.01560
C3028       C  0.84612969  0.10938057  0.68517922    -0.00770
C3029       C  0.81971204  0.10298599  0.69826474    -0.12490
C3030       C  0.78995399  0.07614037  0.69805866     0.01440
H3031       H  0.80551939  0.04646549  0.66034181     0.14420
H3032       H  0.82287003  0.11833213  0.70904243     0.14420
C3033       C  0.76392217  0.07116260  0.71199366     0.36070
C3034       C  0.86434858  0.09582336  0.65692832     0.35980
N3035       N  0.74313227  0.06715583  0.72313440    -0.44270
N3036       N  0.88365553  0.10086591  0.64548039    -0.44270
C3037       C  0.78232254  0.35568121  0.68962174    -0.00680
C3038       C  0.82233362  0.36746424  0.69439502    -0.12550
C3039       C  0.85713121  0.34444313  0.69468094     0.01560
C3040       C  0.85218105  0.30867906  0.69003082    -0.00770
C3041       C  0.81179734  0.29705931  0.68531726    -0.12490
C3042       C  0.77723653  0.32025736  0.68488015     0.01440
H3043       H  0.82639487  0.39485863  0.69791723     0.14420
H3044       H  0.80729925  0.26992826  0.68150832     0.14420
C3045       C  0.73776142  0.30785189  0.67834065     0.36070
C3046       C  0.89745668  0.35869672  0.69943327     0.35980
N3047       N  0.70639732  0.29795256  0.67284722    -0.44270
N3048       N  0.92972879  0.37023903  0.70323648    -0.44270
C3049       C  0.53617473  0.10751429  0.69008445    -0.00680
C3050       C  0.54456170  0.09063102  0.67568508    -0.12550
C3051       C  0.57978666  0.06834640  0.67415019     0.01560
C3052       C  0.60625348  0.06064682  0.68750028    -0.00770
C3053       C  0.59920600  0.07899030  0.70160646    -0.12490
C3054       C  0.56559322  0.10304478  0.70283885     0.01440
H3055       H  0.52444030  0.09611161  0.66535629     0.14420
H3056       H  0.62057328  0.07497209  0.71169645     0.14420
C3057       C  0.56616043  0.12530533  0.71659053     0.36070
C3058       C  0.59105595  0.05826514  0.65827606     0.35980
N3059       N  0.57054854  0.14289192  0.72765797    -0.44270
N3060       N  0.60001260  0.05238088  0.64525320    -0.44270
C3061       C  0.49727656  0.11879031  0.77157052    -0.00680
C3062       C  0.00017657  0.15635266  0.77335571    -0.12550
C3063       C  0.99746514  0.18038814  0.76030834     0.01560
C3064       C  0.99176588  0.16742984  0.74486684    -0.00770
C3065       C  0.48551228  0.13014213  0.74325838    -0.12490
C3066       C  0.48835472  0.10608832  0.75628352     0.01440
H3067       H  0.00609385  0.16739384  0.78502969     0.14420
H3068       H  0.47876442  0.11927998  0.73161437     0.14420
C3069       C  0.48128836  0.06877929  0.75363173     0.36070
C3070       C  0.00163815  0.21794801  0.76310308     0.35980
N3071       N  0.47549920  0.03887122  0.75150307    -0.44270
N3072       N  0.00483862  0.24807058  0.76538157    -0.44270
C3073       C  0.59914474  0.19123426  0.62160983    -0.00680
C3074       C  0.60496781  0.19024087  0.63819460    -0.12550
C3075       C  0.57038056  0.18947640  0.64841618     0.01560
C3076       C  0.52892429  0.18768504  0.64204693    -0.00770
C3077       C  0.52313631  0.18742199  0.62543970    -0.12490
C3078       C  0.55770891  0.19008808  0.61520108     0.01440
H3079       H  0.63662754  0.19139119  0.64317508     0.14420
H3080       H  0.99146139  0.18666717  0.62045895     0.14420
C3081       C  0.54972897  0.19127714  0.59818759     0.36070
C3082       C  0.57855684  0.19115542  0.66538355     0.35980
N3083       N  0.54300944  0.19227508  0.58457183    -0.44270
N3084       N  0.58570025  0.19283332  0.67893309    -0.44270
C3085       C  0.77440178  0.22884041  0.62343773    -0.00680
C3086       C  0.79146280  0.26076261  0.62902685    -0.12550
C3087       C  0.82787251  0.26057875  0.63883203     0.01560
C3088       C  0.84885958  0.22826904  0.64265764    -0.00770
C3089       C  0.83049901  0.19644268  0.63770297    -0.12490
C3090       C  0.79343249  0.19635448  0.62853284     0.01440
H3091       H  0.77639860  0.28580598  0.62577835     0.14420
H3092       H  0.84496686  0.17128318  0.64117557     0.14420
C3093       C  0.77481926  0.16222771  0.62517331     0.36070
C3094       C  0.84037291  0.29318794  0.64616755     0.35980
N3095       N  0.76006147  0.13473826  0.62271318    -0.44270
N3096       N  0.84947538  0.31898862  0.65261251    -0.44270
C3097       C  0.85225533  0.43892541  0.62042678    -0.00680
C3098       C  0.82153259  0.46594013  0.61957007    -0.12550
C3099       C  0.78555534  0.46473907  0.62905014     0.01560
C3100       C  0.77912276  0.43602663  0.63981976    -0.00770
C3101       C  0.80944774  0.40866312  0.64071507    -0.12490
C3102       C  0.84588954  0.41006397  0.63119221     0.01440
H3103       H  0.82534213  0.98830031  0.61135209     0.14420
H3104       H  0.80536726  0.38687187  0.64920867     0.14420
C3105       C  0.87701773  0.38227415  0.63279246     0.36070
C3106       C  0.75527455  0.99327777  0.62722685     0.35980
N3107       N  0.90322674  0.36087190  0.63349023    -0.44270
N3108       N  0.73132074  0.01629812  0.62552745    -0.44270
C3109       C  0.60311659  0.47479738  0.63990410    -0.00680
C3110       C  0.60818077  0.47811119  0.62334572    -0.12550
C3111       C  0.57309784  0.47816134  0.61295449     0.01560
C3112       C  0.53188175  0.47659310  0.61916998    -0.00770
C3113       C  0.52680922  0.47423444  0.63573873    -0.12490
C3114       C  0.56186094  0.47250683  0.64608397     0.01440
H3115       H  0.63965806  0.47957138  0.61849983     0.14420
H3116       H  0.99533812  0.47266917  0.64059208     0.14420
C3117       C  0.55447827  0.46920431  0.66303104     0.36070
C3118       C  0.58045007  0.47979148  0.59598820     0.35980
N3119       N  0.54836232  0.46652852  0.67659443    -0.44270
N3120       N  0.58694216  0.48090937  0.58242167    -0.44270
C3121       C  0.59469227  0.30981435  0.57482587    -0.00680
C3122       C  0.57709231  0.32103974  0.58917237    -0.12550
C3123       C  0.54631068  0.34791758  0.58909624     0.01560
C3124       C  0.53317014  0.36391825  0.57443484    -0.00770
C3125       C  0.55233943  0.35344498  0.56026424    -0.12490
C3126       C  0.58275689  0.32695647  0.56031033     0.01440
H3127       H  0.58684490  0.30841873  0.60036996     0.14420
H3128       H  0.54311257  0.36558657  0.54889403     0.14420
C3129       C  0.60187901  0.31871844  0.54521553     0.36070
C3130       C  0.52956385  0.35895149  0.60416525     0.35980
N3131       N  0.61711513  0.31218294  0.53313324    -0.44270
N3132       N  0.51627408  0.36787300  0.61625724    -0.44270
C3133       C  0.84347385  0.05820400  0.58128518    -0.00680
C3134       C  0.85491792  0.09147194  0.58730633    -0.12550
C3135       C  0.82543464  0.11907456  0.58770350     0.01560
C3136       C  0.78370895  0.11257874  0.58283666    -0.00770
C3137       C  0.77146286  0.07863865  0.57821178    -0.12490
C3138       C  0.80107163  0.05162346  0.57702112     0.01440
H3139       H  0.88752889  0.09678232  0.59042204     0.14420
H3140       H  0.73922167  0.07400287  0.57432436     0.14420
C3141       C  0.78748119  0.01852301  0.57019774     0.36070
C3142       C  0.83905508  0.15409898  0.59221892     0.35980
N3143       N  0.77628985  0.99253682  0.56433485    -0.44270
N3144       N  0.85013212  0.18217580  0.59577766    -0.44270
C3145       C  0.53163616  0.06042896  0.57249996    -0.00680
C3146       C  0.54374646  0.07380894  0.58739646    -0.12550
C3147       C  0.57899541  0.09603248  0.58895120     0.01560
C3148       C  0.60237956  0.10595111  0.57534250    -0.00770
C3149       C  0.59170230  0.09110726  0.56068901    -0.12490
C3150       C  0.55711640  0.06836259  0.55916011     0.01440
H3151       H  0.52612485  0.06618927  0.59793339     0.14420
H3152       H  0.61053396  0.09742620  0.55029256     0.14420
C3153       C  0.55161972  0.05201368  0.54393733     0.36070
C3154       C  0.59282497  0.10503567  0.60480739     0.35980
N3155       N  0.55104032  0.03979182  0.53139163    -0.44270
N3156       N  0.60391855  0.11079210  0.61770393    -0.44270
C3157       C  0.77773341  0.31086470  0.57198640    -0.00680
C3158       C  0.77050748  0.34572325  0.57681928    -0.12550
C3159       C  0.80322761  0.37075076  0.57723034     0.01560
C3160       C  0.84427908  0.36142728  0.57220037    -0.00770
C3161       C  0.85104359  0.32649143  0.56703368    -0.12490
C3162       C  0.81848978  0.30123433  0.56709494     0.01440
H3163       H  0.73928967  0.35319535  0.58068949     0.14420
H3164       H  0.88205019  0.31864146  0.56310418     0.14420
C3165       C  0.82743353  0.26580059  0.56171504     0.36070
C3166       C  0.79320619  0.40561618  0.58294986     0.35980
N3167       N  0.83462610  0.23743065  0.55737461    -0.44270
N3168       N  0.78450658  0.43328389  0.58772115    -0.44270
C3169       C  0.76829622  0.28029926  0.49001441    -0.00680
C3170       C  0.77848547  0.24374035  0.49161815    -0.12550
C3171       C  0.76814597  0.22369607  0.50540686     0.01560
C3172       C  0.74766343  0.24034967  0.51804966    -0.00770
C3173       C  0.73511453  0.27636578  0.51584260    -0.12490
C3174       C  0.74527483  0.29623354  0.50210595     0.01440
H3175       H  0.79630688  0.23114199  0.48231050     0.14420
H3176       H  0.71808210  0.28966986  0.52515990     0.14420
C3177       C  0.73480586  0.33359493  0.50131605     0.36070
C3178       C  0.78088869  0.18692869  0.50660978     0.35980
N3179       N  0.72657244  0.36357380  0.50071965    -0.44270
N3180       N  0.79106353  0.15740045  0.50752855    -0.44270
C3181       C  0.86508425  0.39687663  0.48765926    -0.00680
C3182       C  0.85955427  0.43413168  0.48812818    -0.12550
C3183       C  0.86557026  0.45310389  0.50233139     0.01560
C3184       C  0.87533171  0.43451679  0.51668126    -0.00770
C3185       C  0.88268824  0.39741678  0.51589527    -0.12490
C3186       C  0.87799606  0.37879204  0.50168372     0.01440
H3187       H  0.84808688  0.44824391  0.47753914     0.14420
H3188       H  0.89176842  0.38234031  0.52655819     0.14420
C3189       C  0.88301367  0.34062164  0.50222594     0.36070
C3190       C  0.85966420  0.49112735  0.50191494     0.35980
N3191       N  0.88710895  0.31005393  0.50287587    -0.44270
N3192       N  0.85506039  0.52165244  0.50145937    -0.44270
C3193       C  0.50188718  0.04751045  0.49014307    -0.00680
C3194       C  0.47347850  0.05863177  0.50151324    -0.12550
C3195       C  0.96307133  0.03635511  0.51442100     0.01560
C3196       C  0.98103513  0.00156941  0.51606728    -0.00770
C3197       C  0.00813155  0.98994199  0.50438824    -0.12490
C3198       C  0.01964951  0.01268757  0.49177683     0.01440
H3199       H  0.45951879  0.08491871  0.50035358     0.14420
H3200       H  0.02309315  0.46410111  0.50585310     0.14420
C3201       C  0.05343449  0.00008744  0.48207550     0.36070
C3202       C  0.43447216  0.05085329  0.52588709     0.35980
N3203       N  0.08131928  0.98806990  0.47523283    -0.44270
N3204       N  0.41139269  0.06343115  0.53476148    -0.44270
C3205       C  0.90649208  0.23615919  0.43793300    -0.00680
C3206       C  0.93557348  0.23317646  0.45055328    -0.12550
C3207       C  0.96670014  0.20731927  0.45039372     0.01560
C3208       C  0.96948688  0.18478219  0.43719323    -0.00770
C3209       C  0.94154791  0.18818189  0.42434115    -0.12490
C3210       C  0.90949211  0.21334042  0.42466986     0.01440
H3211       H  0.93327088  0.25033055  0.46077508     0.14420
H3212       H  0.94418394  0.17059412  0.41427559     0.14420
C3213       C  0.88105955  0.21537521  0.41106830     0.36070
C3214       C  0.99523929  0.20430506  0.46395181     0.35980
N3215       N  0.85846045  0.21674834  0.40012336    -0.44270
N3216       N  0.01794295  0.20182853  0.47483635    -0.44270
C3217       C  0.66728860  0.49382806  0.43864840    -0.00680
C3218       C  0.65863699  0.46409224  0.42929573    -0.12550
C3219       C  0.68712967  0.43621627  0.42856014     0.01560
C3220       C  0.72543185  0.43837833  0.43698883    -0.00770
C3221       C  0.73527396  0.46858372  0.44578976    -0.12490
C3222       C  0.70623156  0.49629693  0.44683988     0.01440
H3223       H  0.62837999  0.46152445  0.42328744     0.14420
H3224       H  0.76526055  0.47010386  0.45209675     0.14420
C3225       C  0.71695616  0.02652370  0.45644831     0.36070
C3226       C  0.67546722  0.40530793  0.41956752     0.35980
N3227       N  0.72554013  0.05067003  0.46419501    -0.44270
N3228       N  0.66511369  0.38077167  0.41239451    -0.44270
C3229       C  0.91587492  0.41924342  0.43669321    -0.00680
C3230       C  0.91683879  0.44729623  0.44735982    -0.12550
C3231       C  0.95063727  0.47109057  0.44768240     0.01560
C3232       C  0.98594528  0.46588296  0.43774998    -0.00770
C3233       C  0.98616325  0.43673593  0.42773006    -0.12490
C3234       C  0.95166704  0.41375472  0.42696584     0.01440
H3235       H  0.88935899  0.45264932  0.45445909     0.14420
H3236       H  0.01256499  0.43298866  0.41982077     0.14420
C3237       C  0.95361858  0.38634994  0.41525229     0.36070
C3238       C  0.94409652  0.50300395  0.45654607     0.35980
N3239       N  0.95612111  0.36526829  0.40546628    -0.44270
N3240       N  0.93511794  0.02802510  0.46356239    -0.44270
C3241       C  0.71898495  0.24349878  0.44702242    -0.00680
C3242       C  0.67765100  0.25676418  0.44748908    -0.12550
C3243       C  0.64309200  0.23362732  0.44721672     0.01560
C3244       C  0.65009154  0.19677656  0.44593750    -0.00770
C3245       C  0.69154223  0.18366463  0.44635536    -0.12490
C3246       C  0.72589220  0.20659775  0.44715150     0.01440
H3247       H  0.67240214  0.28526954  0.44715498     0.14420
H3248       H  0.69718005  0.15533131  0.44545022     0.14420
C3249       C  0.76785842  0.19180292  0.44651458     0.36070
C3250       C  0.60114970  0.24850619  0.44676004     0.35980
N3251       N  0.80149230  0.18003029  0.44598661    -0.44270
N3252       N  0.56753563  0.26044828  0.44636919    -0.44270
C3253       C  0.62408258  0.12033743  0.49507963    -0.00680
C3254       C  0.59266916  0.12198955  0.50671370    -0.12550
C3255       C  0.59404077  0.14779273  0.51863633     0.01560
C3256       C  0.62715789  0.17285594  0.51911343    -0.00770
C3257       C  0.65839414  0.17117657  0.50745235    -0.12490
C3258       C  0.65754398  0.14496482  0.49576921     0.01440
H3259       H  0.56585345  0.10426294  0.50604964     0.14420
H3260       H  0.68519541  0.18882652  0.50811498     0.14420
C3261       C  0.69251615  0.14266403  0.48500310     0.36070
C3262       C  0.56074753  0.14848651  0.53020353     0.35980
N3263       N  0.72116276  0.14035092  0.47668972    -0.44270
N3264       N  0.53393879  0.14912155  0.53942534    -0.44270
C3265       C  0.90072845  0.08946169  0.89201308    -0.00680
C3266       C  0.94121211  0.08825518  0.89901469    -0.12550
C3267       C  0.97755910  0.08952907  0.88963031     0.01560
C3268       C  0.97379977  0.09069557  0.87284418    -0.00770
C3269       C  0.93330135  0.09209695  0.86582070    -0.12490
C3270       C  0.89694239  0.09205714  0.87524753     0.01440
H3271       H  0.94443691  0.08576077  0.91188189     0.14420
H3272       H  0.93006954  0.09282330  0.85291004     0.14420
C3273       C  0.85613209  0.09259500  0.86746624     0.36070
C3274       C  0.51825670  0.08753389  0.89746339     0.35980
N3275       N  0.82335340  0.09294917  0.86127190    -0.44270
N3276       N  0.55082658  0.08587125  0.90378241    -0.44270
C3277       C  0.71909279  0.04574172  0.89416288    -0.00680
C3278       C  0.71411308  0.01836133  0.88308400    -0.12550
C3279       C  0.67748294  0.01610730  0.87350780     0.01560
C3280       C  0.64678961  0.04324626  0.87389459    -0.00770
C3281       C  0.65067038  0.06937054  0.88538860    -0.12490
C3282       C  0.68484819  0.06957660  0.89604987     0.01440
H3283       H  0.73834742  0.99820220  0.88212867     0.14420
H3284       H  0.62589128  0.08906280  0.88641774     0.14420
C3285       C  0.68057509  0.09161728  0.90977590     0.36070
C3286       C  0.67133564  0.98479960  0.86419534     0.35980
N3287       N  0.67453995  0.10803157  0.92104136    -0.44270
N3288       N  0.66650751  0.95851061  0.85750536    -0.44270
C3289       C  0.65477288  0.33827554  0.89387003    -0.00680
C3290       C  0.67859498  0.30744156  0.89142454    -0.12550
C3291       C  0.71440870  0.30793725  0.88194529     0.01560
C3292       C  0.72757458  0.33994383  0.87452645    -0.00770
C3293       C  0.70507342  0.37135352  0.87742235    -0.12490
C3294       C  0.66892811  0.37080041  0.88703335     0.01440
H3295       H  0.66925236  0.28256251  0.89697774     0.14420
H3296       H  0.71517588  0.39616187  0.87190593     0.14420
C3297       C  0.64796664  0.40401071  0.89009025     0.36070
C3298       C  0.73787375  0.27522435  0.88051114     0.35980
N3299       N  0.63120873  0.43059351  0.89268069    -0.44270
N3300       N  0.75666227  0.24898455  0.87954993    -0.44270
C3301       C  0.90248794  0.30100847  0.87328037    -0.00680
C3302       C  0.91777010  0.26780879  0.87894476    -0.12550
C3303       C  0.95475366  0.26524290  0.88849250     0.01560
C3304       C  0.97724882  0.29631568  0.89252931    -0.00770
C3305       C  0.96171823  0.32921934  0.88697353    -0.12490
C3306       C  0.92511669  0.33187730  0.87758492     0.01440
H3307       H  0.90097561  0.24379024  0.87585742     0.14420
H3308       H  0.97812578  0.35338816  0.89019182     0.14420
C3309       C  0.91086047  0.36719110  0.87329349     0.36070
C3310       C  0.96767062  0.23072200  0.89456301     0.35980
N3311       N  0.89998089  0.39583663  0.87016981    -0.44270
N3312       N  0.97775227  0.20295050  0.89942393    -0.44270
C3313       C  0.97412151  0.41535052  0.93511957    -0.00680
C3314       C  0.93635951  0.40933046  0.92684692    -0.12550
C3315       C  0.90533676  0.43577168  0.92596901     0.01560
C3316       C  0.91292889  0.46886909  0.93322085    -0.00770
C3317       C  0.95211362  0.47531280  0.94047830    -0.12490
C3318       C  0.98226290  0.44866696  0.94181464     0.01440
H3319       H  0.93033723  0.38345512  0.92180116     0.14420
H3320       H  0.95820885  0.50060129  0.94607890     0.14420
C3321       C  0.51965093  0.45546452  0.95127189     0.36070
C3322       C  0.86508773  0.42703661  0.91886183     0.35980
N3323       N  0.54886753  0.46145201  0.95915707    -0.44270
N3324       N  0.83275600  0.41995977  0.91325468    -0.44270
C3325       C  0.66719541  0.22249706  0.93805939    -0.00680
C3326       C  0.69000621  0.21401780  0.95213228    -0.12550
C3327       C  0.71972635  0.18705183  0.95253007     0.01560
C3328       C  0.72817663  0.16848131  0.93849407    -0.00770
C3329       C  0.70937396  0.17955337  0.92399734    -0.12490
C3330       C  0.67760539  0.20537704  0.92375033     0.01440
H3331       H  0.68339935  0.22728773  0.96321163     0.14420
H3332       H  0.71744513  0.16633993  0.91305035     0.14420
C3333       C  0.65529990  0.21225214  0.90888944     0.36070
C3334       C  0.74131943  0.17933781  0.96753053     0.35980
N3335       N  0.63725679  0.21712445  0.89695360    -0.44270
N3336       N  0.75857055  0.17314607  0.97952237    -0.44270
C3337       C  0.90819471  0.16433449  0.94108792    -0.00680
C3338       C  0.94880284  0.15222523  0.93724786    -0.12550
C3339       C  0.98374771  0.17507979  0.93756516     0.01560
C3340       C  0.97834688  0.21106689  0.94141978    -0.00770
C3341       C  0.93811660  0.22317426  0.94544656    -0.12490
C3342       C  0.90338204  0.20021209  0.94560329     0.01440
H3343       H  0.95342322  0.12471935  0.93410288     0.14420
H3344       H  0.93387430  0.25077112  0.94861141     0.14420
C3345       C  0.86324327  0.21457507  0.95024391     0.36070
C3346       C  0.02448312  0.16148200  0.93321072     0.35980
N3347       N  0.83118218  0.22610514  0.95406974    -0.44270
N3348       N  0.55724510  0.15084152  0.92971308    -0.44270
C3349       C  0.72531793  0.46294576  0.94160570    -0.00680
C3350       C  0.73305493  0.42626004  0.94323710    -0.12550
C3351       C  0.69973706  0.40168134  0.94364285     0.01560
C3352       C  0.65747374  0.41360135  0.94244400    -0.00770
C3353       C  0.64971526  0.45021782  0.94134184    -0.12490
C3354       C  0.68288199  0.47478630  0.94099555     0.01440
H3355       H  0.76525551  0.41667096  0.94402168     0.14420
H3356       H  0.61753367  0.45974239  0.94049640     0.14420
C3357       C  0.67201924  0.01202595  0.94079985     0.36070
C3358       C  0.70976980  0.36444284  0.94585306     0.35980
N3359       N  0.66274667  0.04175909  0.94089847    -0.44270
N3360       N  0.71776474  0.33461369  0.94772114    -0.44270
C3361       C  0.76196520  0.02240551  0.99527967    -0.00680
C3362       C  0.72884809  0.03182481  0.00509891    -0.12550
C3363       C  0.71590545  0.50886680  0.01753437     0.01560
C3364       C  0.73692283  0.47579394  0.02073192    -0.00770
C3365       C  0.76977799  0.46619188  0.01085253    -0.12490
C3366       C  0.78215117  0.98875553  0.99819148     0.01440
H3367       H  0.71187970  0.05641212  0.00265165     0.14420
H3368       H  0.78660498  0.44152136  0.01327966     0.14420
C3369       C  0.81625398  0.97635467  0.98847109     0.36070
C3370       C  0.67963967  0.51962517  0.02652023     0.35980
N3371       N  0.84360330  0.96583766  0.98085882    -0.44270
N3372       N  0.65041850  0.52858483  0.03353602    -0.44270
C3373       C  0.62265133  0.39754136  0.02335807    -0.00680
C3374       C  0.61862330  0.35993705  0.02525844    -0.12550
C3375       C  0.61742749  0.33679723  0.01222520     0.01560
C3376       C  0.61944127  0.35071109  0.99658315    -0.00770
C3377       C  0.62347082  0.38823511  0.99468554    -0.12490
C3378       C  0.62469565  0.41135644  0.00768311     0.01440
H3379       H  0.61727526  0.34801405  0.03712625     0.14420
H3380       H  0.62472082  0.40018426  0.98281607     0.14420
C3381       C  0.62696738  0.44902258  0.00434020     0.36070
C3382       C  0.61459726  0.29901867  0.01532920     0.35980
N3383       N  0.62807978  0.47907119  0.00118251    -0.44270
N3384       N  0.61245027  0.26873834  0.01787883    -0.44270
C3385       C  0.87518462  0.09962509  0.99405657    -0.00680
C3386       C  0.87681307  0.13733005  0.99200546    -0.12550
C3387       C  0.87760019  0.16065948  0.00494483     0.01560
C3388       C  0.87748298  0.14689045  0.02062523    -0.00770
C3389       C  0.87497446  0.10924367  0.02267020    -0.12490
C3390       C  0.87401323  0.08591593  0.00974043     0.01440
H3391       H  0.87693217  0.14917316  0.98010652     0.14420
H3392       H  0.87502665  0.09739303  0.03456599     0.14420
C3393       C  0.87290770  0.04815510  0.01303706     0.36070
C3394       C  0.87823533  0.19846877  0.00171347     0.35980
N3395       N  0.87238924  0.01793162  0.01586056    -0.44270
N3396       N  0.87859310  0.22876700  0.99905766    -0.44270
C3397       C  0.53441362  0.08798485  0.08073890    -0.00680
C3398       C  0.52636656  0.05777508  0.09034070    -0.12550
C3399       C  0.55533613  0.02978609  0.09136651     0.01560
C3400       C  0.59356403  0.03261974  0.08319694    -0.00770
C3401       C  0.60276295  0.06341344  0.07440618    -0.12490
C3402       C  0.57348149  0.09076640  0.07284334     0.01440
H3403       H  0.99631630  0.05496433  0.09624490     0.14420
H3404       H  0.63214748  0.06518675  0.06793544     0.14420
C3405       C  0.58390999  0.11987733  0.06217300     0.36070
C3406       C  0.54386598  0.49798249  0.10006870     0.35980
N3407       N  0.59289953  0.14226569  0.05321339    -0.44270
N3408       N  0.53339608  0.47286454  0.10710236    -0.44270
C3409       C  0.84859509  0.28589491  0.07852447    -0.00680
C3410       C  0.81064176  0.27839038  0.08612038    -0.12550
C3411       C  0.77916843  0.30428117  0.08676551     0.01560
C3412       C  0.78617340  0.33830932  0.07980499    -0.00770
C3413       C  0.82488841  0.34584470  0.07263869    -0.12490
C3414       C  0.85591240  0.31983108  0.07179334     0.01440
H3415       H  0.80499099  0.25188439  0.09094761     0.14420
H3416       H  0.83030834  0.37174809  0.06713270     0.14420
C3417       C  0.89390790  0.32800886  0.06314813     0.36070
C3418       C  0.73902079  0.29415652  0.09336134     0.35980
N3419       N  0.92400127  0.33476926  0.05606413    -0.44270
N3420       N  0.70676258  0.28597340  0.09853666    -0.44270
C3421       C  0.84540478  0.08469572  0.07561540    -0.00680
C3422       C  0.81326531  0.08857412  0.06409446    -0.12550
C3423       C  0.77761181  0.06645574  0.06429072     0.01560
C3424       C  0.77396674  0.03910263  0.07607582    -0.00770
C3425       C  0.80588654  0.03633216  0.08790393    -0.12490
C3426       C  0.84112547  0.05879795  0.08780469     0.01440
H3427       H  0.81572437  0.10938804  0.05501555     0.14420
H3428       H  0.80298762  0.01690082  0.09748035     0.14420
C3429       C  0.87218070  0.05529868  0.10048317     0.36070
C3430       C  0.74533329  0.07352508  0.05243053     0.35980
N3431       N  0.89704556  0.05281014  0.11066385    -0.44270
N3432       N  0.71997237  0.08088278  0.04290460    -0.44270
C3433       C  0.53122789  0.28379359  0.07410746    -0.00680
C3434       C  0.52478414  0.31681055  0.08102810    -0.12550
C3435       C  0.55764690  0.34143001  0.08229288     0.01560
C3436       C  0.59826300  0.33324153  0.07644224    -0.00770
C3437       C  0.60420293  0.30019763  0.06924330    -0.12490
C3438       C  0.57123030  0.27565080  0.06804437     0.01440
H3439       H  0.49395128  0.32324769  0.08562861     0.14420
H3440       H  0.63466044  0.29349713  0.06440204     0.14420
C3441       C  0.57878052  0.24316335  0.05974090     0.36070
C3442       C  0.54788773  0.37499111  0.08936380     0.35980
N3443       N  0.58529571  0.21757160  0.05276510    -0.44270
N3444       N  0.53931640  0.40178738  0.09502198    -0.44270
C3445       C  0.49480215  0.22270163  0.02039489    -0.00680
C3446       C  0.50240823  0.25963755  0.02264561    -0.12550
C3447       C  0.50417979  0.28443813  0.00987458     0.01560
C3448       C  0.49917433  0.27292392  0.99413105    -0.00770
C3449       C  0.99037343  0.23614943  0.99191832    -0.12490
C3450       C  0.98896857  0.21129970  0.00467758     0.01440
H3451       H  0.50645700  0.26976301  0.03459717     0.14420
H3452       H  0.98622575  0.22605407  0.97996307     0.14420
C3453       C  0.98306010  0.17422954  0.00117654     0.36070
C3454       C  0.51080945  0.32142889  0.01336226     0.35980
N3455       N  0.97877403  0.14448433  0.99829226    -0.44270
N3456       N  0.51574771  0.35109860  0.01625521    -0.44270
C3457       C  0.60088980  0.20642207  0.14349542    -0.00680
C3458       C  0.58386895  0.17361167  0.13899050    -0.12550
C3459       C  0.54866256  0.17161568  0.12880113     0.01560
C3460       C  0.52854083  0.20305635  0.12305385    -0.00770
C3461       C  0.54532239  0.23602235  0.12763679    -0.12490
C3462       C  0.58141138  0.23789685  0.13757706     0.01440
H3463       H  0.59843658  0.14913042  0.14336101     0.14420
H3464       H  0.53076327  0.26040721  0.12318383     0.14420
C3465       C  0.59750484  0.27233026  0.14171869     0.36070
C3466       C  0.53362155  0.13666392  0.12477038     0.35980
N3467       N  0.61099565  0.29975146  0.14508059    -0.44270
N3468       N  0.52190592  0.10853237  0.12160038    -0.44270
C3469       C  0.77681467  0.16808941  0.14203320    -0.00680
C3470       C  0.79580461  0.20020589  0.13733283    -0.12550
C3471       C  0.83173202  0.20085041  0.12782442     0.01560
C3472       C  0.85041102  0.16866133  0.12292885    -0.00770
C3473       C  0.83157602  0.13638108  0.12764381    -0.12490
C3474       C  0.79484494  0.13582080  0.13692364     0.01440
H3475       H  0.78249235  0.22518985  0.14114960     0.14420
H3476       H  0.84509301  0.11152287  0.12383000     0.14420
C3477       C  0.77716165  0.10176100  0.14133502     0.36070
C3478       C  0.84923442  0.23520304  0.12371164     0.35980
N3479       N  0.76310933  0.07440004  0.14486525    -0.44270
N3480       N  0.86293208  0.26286349  0.12047829    -0.44270
C3481       C  0.85494694  0.45226516  0.14357881    -0.00680
C3482       C  0.81511949  0.44588922  0.15024783    -0.12550
C3483       C  0.77843467  0.44620624  0.14070581     0.01560
C3484       C  0.78124840  0.45230581  0.12411515    -0.00770
C3485       C  0.82112484  0.45741308  0.11735665    -0.12490
C3486       C  0.85769458  0.45838131  0.12695687     0.01440
H3487       H  0.81264514  0.44058981  0.16297719     0.14420
H3488       H  0.82378779  0.46028270  0.10451130     0.14420
C3489       C  0.89780744  0.46393410  0.11940036     0.36070
C3490       C  0.73856023  0.43794908  0.14799233     0.35980
N3491       N  0.92999476  0.46844325  0.11337185    -0.44270
N3492       N  0.70657337  0.43099769  0.15372474    -0.44270
C3493       C  0.60814953  0.41200136  0.12689438    -0.00680
C3494       C  0.58560868  0.38040507  0.12977323    -0.12550
C3495       C  0.54910328  0.38024333  0.13925510     0.01560
C3496       C  0.53486186  0.41211791  0.14613753    -0.00770
C3497       C  0.55850688  0.44323407  0.14359823    -0.12490
C3498       C  0.59442597  0.44349006  0.13415187     0.01440
H3499       H  0.59545797  0.35621219  0.12406021     0.14420
H3500       H  0.54855237  0.46800224  0.14881306     0.14420
C3501       C  0.61614741  0.47693175  0.13190795     0.36070
C3502       C  0.52706025  0.34716950  0.14178933     0.35980
N3503       N  0.63306314  0.00388938  0.13005267    -0.44270
N3504       N  0.50923315  0.32074652  0.14394878    -0.44270
C3505       C  0.53696673  0.03627082  0.18394978    -0.00680
C3506       C  0.57851422  0.02810772  0.18010300    -0.12550
C3507       C  0.60964133  0.05415398  0.18084940     0.01560
C3508       C  0.59887478  0.08881219  0.18564486    -0.00770
C3509       C  0.55715153  0.09716606  0.18897334    -0.12490
C3510       C  0.52606681  0.07126564  0.18816328     0.01440
H3511       H  0.58689097  0.50103994  0.17718090     0.14420
H3512       H  0.54909667  0.12378081  0.19269823     0.14420
C3513       C  0.98426162  0.08121727  0.19294395     0.36070
C3514       C  0.65266877  0.04382705  0.17790532     0.35980
N3515       N  0.95152476  0.09075780  0.19702689    -0.44270
N3516       N  0.68709717  0.03542500  0.17558709    -0.44270
C3517       C  0.78443971  0.28810000  0.18640008    -0.00680
C3518       C  0.81158097  0.29406670  0.17359623    -0.12550
C3519       C  0.84170032  0.32131486  0.17422322     0.01560
C3520       C  0.84490515  0.34264169  0.18799787    -0.00770
C3521       C  0.81518817  0.33802459  0.20012516    -0.12490
C3522       C  0.78522887  0.31122224  0.19942293     0.01440
H3523       H  0.81016892  0.27677188  0.16338783     0.14420
H3524       H  0.81599765  0.35465781  0.21055774     0.14420
C3525       C  0.75552313  0.30821846  0.21229965     0.36070
C3526       C  0.86867892  0.32648320  0.16063190     0.35980
N3527       N  0.73165411  0.30660405  0.22260862    -0.44270
N3528       N  0.89009463  0.33066371  0.14967817    -0.44270
C3529       C  0.85544200  0.03804652  0.19003613    -0.00680
C3530       C  0.82147323  0.03067649  0.20004296    -0.12550
C3531       C  0.78633322  0.05323944  0.20032642     0.01560
C3532       C  0.78449010  0.08378164  0.19014791    -0.00770
C3533       C  0.81872416  0.09073144  0.18000250    -0.12490
C3534       C  0.85368252  0.06797130  0.17973497     0.01440
H3535       H  0.82237720  0.00699955  0.20761348     0.14420
H3536       H  0.81810655  0.11385009  0.17208238     0.14420
C3537       C  0.88648026  0.07493618  0.16831394     0.36070
C3538       C  0.75327087  0.04435217  0.21136645     0.35980
N3539       N  0.91265114  0.08034110  0.15909390    -0.44270
N3540       N  0.72693075  0.03696026  0.22024481    -0.44270
C3541       C  0.60654275  0.28809068  0.19548818    -0.00680
C3542       C  0.57042878  0.27984492  0.20441496    -0.12550
C3543       C  0.53578763  0.30355133  0.20505976     0.01560
C3544       C  0.53581702  0.33599696  0.19610777    -0.00770
C3545       C  0.57249401  0.34413721  0.18734144    -0.12490
C3546       C  0.60749723  0.32098777  0.18715888     0.01440
H3547       H  0.56936432  0.25478271  0.21101249     0.14420
H3548       H  0.57402958  0.36882485  0.18048556     0.14420
C3549       C  0.64388123  0.33120772  0.17799961     0.36070
C3550       C  0.50107755  0.29397900  0.21521386     0.35980
N3551       N  0.67311513  0.33927151  0.17066863    -0.44270
N3552       N  0.97343432  0.28641713  0.22347836    -0.44270
C3553       C  0.94568755  0.31727380  0.35713546    -0.00680
C3554       C  0.95795658  0.30206565  0.37196283    -0.12550
C3555       C  0.93058634  0.30091513  0.38484853     0.01560
C3556       C  0.89021798  0.31615114  0.38315889    -0.00770
C3557       C  0.87735468  0.33047677  0.36828508    -0.12490
C3558       C  0.90444460  0.33118011  0.35530827     0.01440
H3559       H  0.98966283  0.29185135  0.37372196     0.14420
H3560       H  0.84612822  0.34199804  0.36688243     0.14420
C3561       C  0.88938216  0.34808134  0.34067770     0.36070
C3562       C  0.94670207  0.28742707  0.39998069     0.35980
N3563       N  0.87715574  0.36178990  0.32902411    -0.44270
N3564       N  0.96094782  0.27748795  0.41203938    -0.44270
C3565       C  0.66949449  0.32322465  0.35816912    -0.00680
C3566       C  0.69625356  0.35286596  0.35861372    -0.12550
C3567       C  0.72041721  0.35980881  0.37227213     0.01560
C3568       C  0.71803720  0.33661803  0.38563235    -0.00770
C3569       C  0.69114570  0.30717965  0.38521037    -0.12490
C3570       C  0.66678536  0.30037395  0.37167762     0.01440
H3571       H  0.69773227  0.37095410  0.34839922     0.14420
H3572       H  0.69020389  0.28881291  0.39535599     0.14420
C3573       C  0.64048381  0.26905957  0.37178661     0.36070
C3574       C  0.74892116  0.38967239  0.37199510     0.35980
N3575       N  0.61945010  0.24397143  0.37190630    -0.44270
N3576       N  0.77181493  0.41356539  0.37176794    -0.44270
C3577       C  0.65797568  0.21543700  0.25004232    -0.00680
C3578       C  0.61764551  0.21869729  0.25612158    -0.12550
C3579       C  0.60750274  0.24595014  0.26666373     0.01560
C3580       C  0.63939115  0.26916748  0.27274541    -0.00770
C3581       C  0.68000879  0.26448121  0.26741025    -0.12490
C3582       C  0.68945206  0.23937533  0.25593839     0.01440
H3583       H  0.59266011  0.20249900  0.25111831     0.14420
H3584       H  0.70414115  0.28297951  0.27118024     0.14420
C3585       C  0.73102616  0.24361040  0.24965620     0.36070
C3586       C  0.56317302  0.24971689  0.26945788     0.35980
N3587       N  0.76480887  0.25032671  0.24554922    -0.44270
N3588       N  0.52688355  0.24979195  0.27040544    -0.44270
C3589       C  0.49170533  0.40551683  0.24813990    -0.00680
C3590       C  0.95299286  0.40014450  0.25613760    -0.12550
C3591       C  0.94579845  0.37092660  0.26626673     0.01560
C3592       C  0.97905870  0.34831907  0.27037161    -0.00770
C3593       C  0.51783441  0.35298562  0.26240482    -0.12490
C3594       C  0.52395298  0.38060215  0.25127417     0.01440
H3595       H  0.92723158  0.41774715  0.25460827     0.14420
H3596       H  0.54407638  0.33529249  0.26492344     0.14420
C3597       C  0.56332699  0.38215686  0.24282328     0.36070
C3598       C  0.90363190  0.36362848  0.27170812     0.35980
N3599       N  0.59477340  0.38318664  0.23600076    -0.44270
N3600       N  0.87000180  0.35695970  0.27598180    -0.44270
C3601       C  0.96358156  0.08110846  0.39899772    -0.00680
C3602       C  0.92264481  0.07206838  0.40392516    -0.12550
C3603       C  0.89102223  0.06330291  0.39275543     0.01560
C3604       C  0.90030498  0.06271700  0.37634263    -0.00770
C3605       C  0.94112733  0.07121779  0.37142541    -0.12490
C3606       C  0.97268145  0.08010166  0.38246886     0.01440
H3607       H  0.91510670  0.07246086  0.41651257     0.14420
H3608       H  0.94820563  0.07147553  0.35877744     0.14420
C3609       C  0.51428772  0.08695583  0.37636100     0.36070
C3610       C  0.84869950  0.05723657  0.39826140     0.35980
N3611       N  0.54751622  0.09228559  0.37133944    -0.44270
N3612       N  0.81465084  0.05264048  0.40259710    -0.44270
C3613       C  0.70841824  0.05898397  0.37084765    -0.00680
C3614       C  0.68375567  0.02886309  0.37470795    -0.12550
C3615       C  0.64862697  0.03154202  0.38474207     0.01560
C3616       C  0.63814087  0.06468142  0.39115315    -0.00770
C3617       C  0.66035842  0.09497860  0.38611095    -0.12490
C3618       C  0.69491850  0.09263326  0.37616599     0.01440
H3619       H  0.69254773  0.00302888  0.37028784     0.14420
H3620       H  0.65153719  0.12088491  0.39050738     0.14420
C3621       C  0.71559294  0.12560512  0.37183058     0.36070
C3622       C  0.62492242  0.99999509  0.38867734     0.35980
N3623       N  0.73198451  0.15207664  0.36840463    -0.44270
N3624       N  0.60557013  0.47475353  0.39166255    -0.44270
C3625       C  0.74702596  0.14035736  0.24540637    -0.00680
C3626       C  0.72293902  0.10832668  0.24568007    -0.12550
C3627       C  0.72474425  0.08358017  0.25864601     0.01560
C3628       C  0.74976173  0.09082498  0.27209992    -0.00770
C3629       C  0.76877769  0.12503395  0.27257200    -0.12490
C3630       C  0.76982920  0.14849049  0.25929127     0.01440
H3631       H  0.70374873  0.10174525  0.23537180     0.14420
H3632       H  0.78607996  0.13296426  0.28300080     0.14420
C3633       C  0.79979431  0.17723185  0.25953276     0.36070
C3634       C  0.69924418  0.05198200  0.25822114     0.35980
N3635       N  0.82515117  0.19926223  0.25990283    -0.44270
N3636       N  0.67821928  0.02690827  0.25801004    -0.44270
C3637       C  0.96146036  0.21206580  0.31653603    -0.00680
C3638       C  0.95021900  0.19172266  0.30338520    -0.12550
C3639       C  0.92604046  0.16128020  0.30521636     0.01560
C3640       C  0.91218560  0.15110800  0.32058044    -0.00770
C3641       C  0.92526393  0.17065333  0.33388609    -0.12490
C3642       C  0.95039398  0.20079353  0.33198011     0.01440
H3643       H  0.95987553  0.20012522  0.29150229     0.14420
H3644       H  0.91538607  0.16253465  0.34576252     0.14420
C3645       C  0.96659562  0.21803184  0.34596824     0.36070
C3646       C  0.91491351  0.14285800  0.29084570     0.35980
N3647       N  0.98034228  0.23080189  0.35733728    -0.44270
N3648       N  0.90808707  0.12977807  0.27870215    -0.44270
C3649       C  0.64519981  0.41468980  0.31359219    -0.00680
C3650       C  0.63253350  0.45012224  0.31523154    -0.12550
C3651       C  0.66255641  0.47714253  0.31721624     0.01560
C3652       C  0.70577431  0.46825222  0.31849306    -0.00770
C3653       C  0.71815819  0.43330451  0.31602680    -0.12490
C3654       C  0.68873344  0.40679261  0.31343785     0.01440
H3655       H  0.59921626  0.45650509  0.31542198     0.14420
H3656       H  0.75140708  0.42641139  0.31642129     0.14420
C3657       C  0.70556513  0.37161351  0.31211840     0.36070
C3658       C  0.64780348  0.01318051  0.31820657     0.35980
N3659       N  0.72247495  0.34448927  0.31159021    -0.44270
N3660       N  0.63465175  0.04181360  0.31856808    -0.44270
C3661       C  0.72602561  0.15980775  0.31646246    -0.00680
C3662       C  0.73571944  0.19235650  0.30936998    -0.12550
C3663       C  0.70594104  0.21956089  0.30849153     0.01560
C3664       C  0.66388818  0.21340266  0.31339358    -0.00770
C3665       C  0.65338922  0.18003623  0.31970691    -0.12490
C3666       C  0.68434427  0.15375954  0.32190158     0.01440
H3667       H  0.76779445  0.19754933  0.30563962     0.14420
H3668       H  0.62156376  0.17521603  0.32377558     0.14420
C3669       C  0.67279667  0.12201289  0.33070401     0.36070
C3670       C  0.72170545  0.25346493  0.30325125     0.35980
N3671       N  0.66351132  0.09727964  0.33826482    -0.44270
N3672       N  0.73870150  0.27904206  0.29905644    -0.44270
C3673       C  0.90075387  0.46398310  0.31675073    -0.00680
C3674       C  0.93559856  0.46875606  0.32720667    -0.12550
C3675       C  0.97183764  0.44752335  0.32660003     0.01560
C3676       C  0.97467945  0.42040711  0.31527991    -0.00770
C3677       C  0.94200926  0.41806289  0.30376519    -0.12490
C3678       C  0.90539746  0.43955511  0.30434586     0.01440
H3679       H  0.93426386  0.48862122  0.33640072     0.14420
H3680       H  0.94390517  0.39789453  0.29493136     0.14420
C3681       C  0.87249286  0.43526978  0.29254175     0.36070
C3682       C  0.00528153  0.45362651  0.33808719     0.35980
N3683       N  0.84579638  0.43262391  0.28311126    -0.44270
N3684       N  0.53206158  0.45848291  0.34728453    -0.44270
C3685       C  0.86973447  0.03828552  0.27059822    -0.00680
C3686       C  0.90227433  0.01359376  0.27284857    -0.12550
C3687       C  0.91296498  0.48928353  0.26098077     0.01560
C3688       C  0.88466650  0.48223426  0.24788657    -0.00770
C3689       C  0.85059125  0.50618342  0.24623287    -0.12490
C3690       C  0.84590902  0.03565652  0.25632327     0.01440
H3691       H  0.92217365  0.01566488  0.28343520     0.14420
H3692       H  0.83150017  0.50532211  0.23543780     0.14420
C3693       C  0.82677817  0.06647094  0.24912213     0.36070
C3694       C  0.95659667  0.47912554  0.26173699     0.35980
N3695       N  0.81501062  0.09073360  0.24170065    -0.44270
N3696       N  0.99229925  0.47399874  0.26356468    -0.44270
O3697       O  0.85411622  0.54144914  0.29809953    -0.80660
O3698       O  0.86101437  0.58797015  0.35548737    -0.80690
O3699       O  0.87803326  0.59644405  0.31529660    -0.80690
O3700       O  0.85949271  0.99741165  0.33398175    -0.80640
O3701       O  0.84819509  0.63305344  0.33153174    -0.80760
O3702       O  0.82923660  0.98819596  0.31041780    -0.80680
O3703       O  0.84500730  0.53255445  0.36211042    -0.80660
O3704       O  0.83968437  0.58958426  0.28529108    -0.80700
C3705       C  0.85583327  0.55858571  0.28498983     1.09030
C3706       C  0.86696726  0.56050832  0.36391375     1.08910
C3707       C  0.87894046  0.62479354  0.32292711     1.09050
C3708       C  0.86080649  0.98404136  0.32025903     1.08930
O3709       O  0.74022803  0.02377576  0.31610845    -0.80660
O3710       O  0.75917306  0.61748870  0.33299040    -0.80740
O3711       O  0.76164296  0.57888714  0.29959260    -0.80680
O3712       O  0.75517986  0.52664133  0.35435649    -0.80660
O3713       O  0.77296718  0.58084909  0.36066197    -0.80710
O3714       O  0.77320610  0.53350860  0.28537445    -0.80670
O3715       O  0.77163027  0.98304763  0.33028175    -0.80630
O3716       O  0.79307765  0.63193671  0.31108996    -0.80700
Co3717     Co  0.79674519  0.53591602  0.30803370     1.51530
Co3718     Co  0.80986549  0.60153030  0.34398600     1.51690
Co3719     Co  0.82095883  0.58364280  0.30812646     1.51570
Co3720     Co  0.80845884  0.51316328  0.34415809     1.51470
O3721       O  0.81094634  0.55814965  0.32959149    -1.42600
C3722       C  0.73956788  0.99351857  0.32238651     1.08950
C3723       C  0.76100347  0.63504380  0.32013979     1.09040
C3724       C  0.75811087  0.56518971  0.28604111     1.08980
C3725       C  0.74742337  0.55523751  0.36128806     1.08960
O3726       O  0.01604420  0.87080782  0.30609880    -0.80660
O3727       O  0.65942283  0.80943765  0.29432073    -0.80690
O3728       O  0.60228058  0.87846207  0.32968968    -0.80690
O3729       O  0.51204522  0.80683386  0.28720572    -0.80640
O3730       O  0.60630178  0.86494004  0.30444752    -0.80760
O3731       O  0.95316278  0.82919944  0.29638631    -0.80680
O3732       O  0.59488893  0.80833113  0.28694648    -0.80660
O3733       O  0.51717743  0.88094474  0.33133693    -0.80700
C3734       C  0.00625621  0.89078879  0.31736926     1.09030
C3735       C  0.63185310  0.79831540  0.28433985     1.08910
C3736       C  0.61415759  0.88600964  0.31561721     1.09050
C3737       C  0.97869585  0.82508633  0.28487186     1.08930
O3738       O  0.97518883  0.77380818  0.31693339    -0.80660
O3739       O  0.65187988  0.82767186  0.33033491    -0.80740
O3740       O  0.51582678  0.81385106  0.34793664    -0.80680
O3741       O  0.60050154  0.73910061  0.30292454    -0.80660
O3742       O  0.63606827  0.76923404  0.31978133    -0.80710
O3743       O  0.96751628  0.83123395  0.33043534    -0.80670
O3744       O  0.51922195  0.73924687  0.30540170    -0.80630
O3745       O  0.60277152  0.81169075  0.34720580    -0.80700
Co3746     Co  0.00023133  0.82047076  0.31074085     1.51530
Co3747     Co  0.61640715  0.81512360  0.31110907     1.51690
Co3748     Co  0.55952395  0.84325679  0.33789530     1.51570
Co3749     Co  0.55615474  0.77582838  0.29759570     1.51470
O3750       O  0.55758870  0.80761782  0.31922692    -1.42600
C3751       C  0.98691983  0.74332569  0.31325982     1.08950
C3752       C  0.64065235  0.81955076  0.34449372     1.09040
C3753       C  0.97761083  0.82034657  0.34446000     1.08980
C3754       C  0.63137941  0.74142605  0.31227983     1.08960
O3755       O  0.98586582  0.95880007  0.23039512    -0.80660
O3756       O  0.96865603  0.89103947  0.15748612    -0.80690
O3757       O  0.96479654  0.85735828  0.20281644    -0.80690
O3758       O  0.97552392  0.50445914  0.17679121    -0.80640
O3759       O  0.00233955  0.89041423  0.18740256    -0.80760
O3760       O  0.01071462  0.48796712  0.19862269    -0.80680
O3761       O  0.99359499  0.94169053  0.16562431    -0.80660
O3762       O  0.98896655  0.90682995  0.22091049    -0.80700
C3763       C  0.49179670  0.92561687  0.23259175     1.09030
C3764       C  0.49700133  0.91478878  0.15649575     1.08910
C3765       C  0.99930922  0.86216987  0.19552011     1.09050
C3766       C  0.50734251  0.50716839  0.18610133     1.08930
O3767       O  0.92578031  0.51981626  0.19670544    -0.80660
O3768       O  0.91206550  0.86851737  0.18191321    -0.80740
O3769       O  0.90368075  0.93096143  0.23028349    -0.80680
O3770       O  0.92163494  0.97385178  0.15357620    -0.80660
O3771       O  0.89511236  0.92669369  0.16539786    -0.80710
O3772       O  0.90672607  0.98618056  0.22180548    -0.80670
O3773       O  0.88677168  0.48400446  0.18283394    -0.80630
O3774       O  0.87893004  0.88694078  0.20327670    -0.80700
Co3775     Co  0.95842169  0.98442761  0.21060309     1.51530
Co3776     Co  0.94969094  0.91067015  0.17751866     1.51690
Co3777     Co  0.93300544  0.89831975  0.21332987     1.51570
Co3778     Co  0.93877089  0.96104564  0.17525361     1.51470
O3779       O  0.94261693  0.93942463  0.19753718    -1.42600
C3780       C  0.89090915  0.51281411  0.18992316     1.08950
C3781       C  0.87979921  0.86801755  0.19087734     1.09040
C3782       C  0.89820562  0.96457495  0.23258182     1.08980
C3783       C  0.89273031  0.95057142  0.15421185     1.08960
O3784       O  0.74594474  0.69472217  0.22822999    -0.80660
O3785       O  0.71277833  0.64575066  0.15404321    -0.80690
O3786       O  0.71455668  0.60268257  0.19723688    -0.80690
O3787       O  0.72394381  0.75556380  0.17821945    -0.80640
O3788       O  0.75132619  0.63889263  0.18293314    -0.80760
O3789       O  0.76305412  0.73439592  0.19819244    -0.80680
O3790       O  0.73865961  0.69544226  0.16318024    -0.80660
O3791       O  0.74459455  0.64392306  0.21774604    -0.80700
C3792       C  0.74970314  0.66115255  0.22982166     1.09030
C3793       C  0.74063412  0.66983637  0.15318513     1.08910
C3794       C  0.74842203  0.60926334  0.18997701     1.09050
C3795       C  0.75716791  0.75676659  0.18692053     1.08930
O3796       O  0.67755054  0.76580292  0.20047182    -0.80660
O3797       O  0.66060844  0.61937260  0.17849397    -0.80740
O3798       O  0.66474293  0.66654873  0.23084631    -0.80680
O3799       O  0.66487370  0.73083065  0.15523006    -0.80660
O3800       O  0.64224731  0.67991814  0.16478299    -0.80710
O3801       O  0.66276844  0.72183989  0.22290286    -0.80670
O3802       O  0.63571692  0.73417312  0.18574476    -0.80630
O3803       O  0.63113459  0.63212250  0.20165088    -0.80700
Co3804     Co  0.71317897  0.72603922  0.21110250     1.51530
Co3805     Co  0.69810294  0.66151337  0.17510267     1.51690
Co3806     Co  0.68722796  0.63983759  0.21084269     1.51570
Co3807     Co  0.68619608  0.71273820  0.17560144     1.51470
O3808       O  0.69481804  0.68501622  0.19649627    -1.42600
C3809       C  0.64135094  0.76124322  0.19409863     1.08950
C3810       C  0.63098084  0.61566249  0.18852150     1.09040
C3811       C  0.66113663  0.69970246  0.23390251     1.08980
C3812       C  0.63781270  0.70601973  0.15473924     1.08960
O3813       O  0.96466354  0.72682480  0.11077447    -0.80660
O3814       O  0.97212378  0.66829437  0.03544076    -0.80690
O3815       O  0.96965826  0.61623448  0.08755497    -0.80690
O3816       O  0.96223503  0.76513081  0.06630084    -0.80640
O3817       O  0.99901525  0.63006930  0.06431298    -0.80760
O3818       O  0.99888552  0.72912775  0.08125026    -0.80680
O3819       O  0.98628231  0.71586321  0.04758135    -0.80660
O3820       O  0.98759060  0.67594154  0.10206533    -0.80700
C3821       C  0.99155811  0.70179944  0.11184624     1.09030
C3822       C  0.98708331  0.69978158  0.03503492     1.08910
C3823       C  0.99997885  0.61359082  0.07764641     1.09050
C3824       C  0.99611842  0.75816478  0.07375796     1.08930
O3825       O  0.90932335  0.75336541  0.08622841    -0.80660
O3826       O  0.91457019  0.60312139  0.06791104    -0.80740
O3827       O  0.91418344  0.64346409  0.11193645    -0.80680
O3828       O  0.90040111  0.70030196  0.03545572    -0.80660
O3829       O  0.88770900  0.65149407  0.04786879    -0.80710
O3830       O  0.89097474  0.69394964  0.10157617    -0.80670
O3831       O  0.87663267  0.74038037  0.06339662    -0.80630
O3832       O  0.87888694  0.63853674  0.08258136    -0.80700
Co3833     Co  0.94552026  0.70982025  0.09022461     1.51530
Co3834     Co  0.94435301  0.64120925  0.05492890     1.51690
Co3835     Co  0.93233999  0.65916699  0.09092222     1.51570
Co3836     Co  0.93034706  0.72743870  0.05422810     1.51470
O3837       O  0.93749699  0.68433373  0.06954991    -1.42600
C3838       C  0.87871625  0.75739954  0.07628887     1.08950
C3839       C  0.88125151  0.60974346  0.07539622     1.09040
C3840       C  0.88733488  0.66872285  0.11207314     1.08980
C3841       C  0.88576254  0.66864431  0.03526693     1.08960
O3842       O  0.67055412  0.88960689  0.11378309    -0.80660
O3843       O  0.64214911  0.95144148  0.03867704    -0.80690
O3844       O  0.65519820  0.50088810  0.09055326    -0.80690
O3845       O  0.66761606  0.85347909  0.06941344    -0.80640
O3846       O  0.61959130  0.48520131  0.06886240    -0.80760
O3847       O  0.63196437  0.88677053  0.08483152    -0.80680
O3848       O  0.63666180  0.90118580  0.05043861    -0.80660
O3849       O  0.64249262  0.93927591  0.10465038    -0.80700
C3850       C  0.64235333  0.91347211  0.11492393     1.09030
C3851       C  0.63134912  0.91883255  0.03814190     1.08910
C3852       C  0.62265303  0.50310079  0.08148048     1.09050
C3853       C  0.63422221  0.85871393  0.07709127     1.08930
O3854       O  0.72337157  0.86659534  0.08834438    -0.80660
O3855       O  0.70375883  0.51746738  0.06937530    -0.80740
O3856       O  0.71450892  0.97371225  0.11380010    -0.80680
O3857       O  0.71874793  0.92301753  0.03729349    -0.80660
O3858       O  0.72631398  0.97481922  0.04774322    -0.80710
O3859       O  0.74106696  0.92610518  0.10300001    -0.80670
O3860       O  0.75062970  0.88309625  0.06505989    -0.80630
O3861       O  0.74450461  0.48318637  0.08373247    -0.80700
Co3862     Co  0.68537588  0.90819892  0.09271579     1.51530
Co3863     Co  0.67220187  0.97885914  0.05736122     1.51690
Co3864     Co  0.69454527  0.95904913  0.09297821     1.51570
Co3865     Co  0.69449553  0.89324182  0.05654991     1.51470
O3866       O  0.68762490  0.93525929  0.07168273    -1.42600
C3867       C  0.75236353  0.86473321  0.07792350     1.08950
C3868       C  0.73908653  0.51221296  0.07630590     1.09040
C3869       C  0.74367314  0.95052363  0.11350680     1.08980
C3870       C  0.72898697  0.95586589  0.03597347     1.08960
O3871       O  0.51685040  0.77703669  0.96762766    -0.80660
O3872       O  0.51702076  0.82255124  0.91368858    -0.80690
O3873       O  0.50132406  0.86830194  0.95069234    -0.80690
O3874       O  0.50860393  0.76622432  0.93362901    -0.80640
O3875       O  0.53456842  0.88306905  0.92836209    -0.80760
O3876       O  0.54781812  0.73159685  0.94817188    -0.80680
O3877       O  0.54241714  0.77273432  0.90432576    -0.80660
O3878       O  0.52451126  0.82697928  0.97928549    -0.80700
C3879       C  0.51142986  0.79470419  0.97961575     1.09030
C3880       C  0.51420137  0.79692475  0.90370322     1.08910
C3881       C  0.50366278  0.88628994  0.93779662     1.09050
C3882       C  0.51334050  0.73703244  0.94085343     1.08930
O3883       O  0.62936321  0.76443351  0.95236613    -0.80660
O3884       O  0.62391783  0.86026025  0.93437378    -0.80740
O3885       O  0.61086252  0.84669826  0.96918711    -0.80680
O3886       O  0.61422809  0.80832900  0.91406550    -0.80660
O3887       O  0.58857627  0.85856955  0.90464996    -0.80710
O3888       O  0.59869142  0.79752145  0.98108472    -0.80670
O3889       O  0.60133370  0.74838239  0.92920489    -0.80630
O3890       O  0.58711821  0.89483549  0.94899582    -0.80700
Co3891     Co  0.57408431  0.77085310  0.96121105     1.51530
Co3892     Co  0.57102112  0.84010437  0.92522894     1.51690
Co3893     Co  0.55502585  0.85632294  0.96103854     1.51570
Co3894     Co  0.56036084  0.78917595  0.92514518     1.51470
O3895       O  0.56451042  0.81418545  0.94621578    -1.42600
C3896       C  0.63153863  0.74728476  0.93952890     1.08950
C3897       C  0.62132633  0.88847545  0.94198529     1.09040
C3898       C  0.61204253  0.82940444  0.98173332     1.08980
C3899       C  0.61712673  0.83500467  0.90426362     1.08960
O3900       O  0.86671921  0.59462019  0.96677326    -0.80660
O3901       O  0.86221609  0.55873571  0.91246910    -0.80690
O3902       O  0.88094534  0.51153320  0.94903823    -0.80690
O3903       O  0.87386549  0.61133547  0.93229694    -0.80640
O3904       O  0.84732854  0.49734903  0.92667851    -0.80760
O3905       O  0.83887564  0.64425529  0.94818436    -0.80680
O3906       O  0.83474706  0.60852381  0.90310900    -0.80660
O3907       O  0.85705182  0.54542398  0.97884867    -0.80700
C3908       C  0.86931613  0.57763666  0.97932933     1.09030
C3909       C  0.86363031  0.58515850  0.90249863     1.08910
C3910       C  0.87927024  0.99465719  0.93608402     1.09050
C3911       C  0.87203551  0.63901752  0.94041653     1.08930
O3912       O  0.75481653  0.61704988  0.95131276    -0.80660
O3913       O  0.75748098  0.51744995  0.93324287    -0.80740
O3914       O  0.77275804  0.52488744  0.96828668    -0.80680
O3915       O  0.76359896  0.57363400  0.91390269    -0.80660
O3916       O  0.78800854  0.52507728  0.90331905    -0.80710
O3917       O  0.78256859  0.57555055  0.97933327    -0.80670
O3918       O  0.78388660  0.63371473  0.92839339    -0.80630
O3919       O  0.79686590  0.48142995  0.94703782    -0.80700
Co3920     Co  0.80963643  0.60495883  0.96041809     1.51530
Co3921     Co  0.80884230  0.53985591  0.92401102     1.51690
Co3922     Co  0.82785894  0.51910913  0.95965531     1.51570
Co3923     Co  0.81964662  0.59057747  0.92418939     1.51470
O3924       O  0.81631947  0.56343192  0.94521501    -1.42600
C3925       C  0.75594567  0.63742510  0.93908504     1.08950
C3926       C  0.76148064  0.98821868  0.94053771     1.09040
C3927       C  0.77050854  0.54309362  0.98026216     1.08980
C3928       C  0.75890479  0.54840014  0.90385105     1.08960
O3929       O  0.57494883  0.55345441  0.40679102    -0.80660
O3930       O  0.60987282  0.62461433  0.46822891    -0.80690
O3931       O  0.62322773  0.64608158  0.43350303    -0.80690
O3932       O  0.62809718  0.53287867  0.45430533    -0.80640
O3933       O  0.58047932  0.67299300  0.44900235    -0.80760
O3934       O  0.60353190  0.52107930  0.43086589    -0.80680
O3935       O  0.59738163  0.57283105  0.47845613    -0.80660
O3936       O  0.62019763  0.59215037  0.41476933    -0.80700
C3937       C  0.60969138  0.56946067  0.40480994     1.09030
C3938       C  0.61310243  0.60370649  0.47971207     1.08910
C3939       C  0.61609620  0.67126249  0.44259423     1.09050
C3940       C  0.63234633  0.51828024  0.44123631     1.08930
O3941       O  0.52444304  0.50650745  0.42174652    -0.80660
O3942       O  0.50023001  0.63483947  0.44853436    -0.80740
O3943       O  0.53005189  0.60530238  0.40763719    -0.80680
O3944       O  0.51377938  0.55828316  0.46311475    -0.80660
O3945       O  0.52618564  0.60200494  0.47751449    -0.80710
O3946       O  0.49589836  0.57279812  0.42463544    -0.80670
O3947       O  0.53660264  0.50733414  0.44775691    -0.80630
O3948       O  0.53166545  0.65916884  0.42770589    -0.80700
Co3949     Co  0.54965975  0.54858302  0.42915236     1.51530
Co3950     Co  0.55417757  0.62898253  0.45883790     1.51690
Co3951     Co  0.57649819  0.62334916  0.42230090     1.51570
Co3952     Co  0.57115543  0.54725593  0.45896737     1.51470
O3953       O  0.57021669  0.58989719  0.44208038    -1.42600
C3954       C  0.51839369  0.49355966  0.43551256     1.08950
C3955       C  0.50070429  0.65696417  0.43717621     1.09040
C3956       C  0.49696915  0.58820561  0.41122919     1.08980
C3957       C  0.51112896  0.57133001  0.47631165     1.08960
O3958       O  0.85827074  0.79626906  0.40716399    -0.80660
O3959       O  0.80572739  0.88436911  0.47207756    -0.80690
O3960       O  0.86981833  0.88456075  0.42149182    -0.80690
O3961       O  0.87658841  0.78898674  0.44785358    -0.80640
O3962       O  0.84609200  0.89985286  0.44466820    -0.80760
O3963       O  0.83814835  0.75586781  0.43222879    -0.80680
O3964       O  0.86203074  0.85413605  0.46539826    -0.80660
O3965       O  0.83930862  0.84800462  0.39703013    -0.80700
C3966       C  0.86177034  0.82035993  0.39669645     1.09030
C3967       C  0.84406288  0.87731848  0.47462566     1.08910
C3968       C  0.87587077  0.89917636  0.43452415     1.09050
C3969       C  0.87263599  0.76215196  0.43914947     1.08930
O3970       O  0.75142238  0.78117443  0.42877089    -0.80660
O3971       O  0.75297710  0.88370418  0.44594783    -0.80740
O3972       O  0.75633519  0.86511821  0.40631150    -0.80680
O3973       O  0.82840720  0.79539850  0.47545582    -0.80660
O3974       O  0.77043541  0.82280455  0.46695664    -0.80710
O3975       O  0.77125198  0.80975726  0.40064101    -0.80670
O3976       O  0.78650060  0.77018958  0.45072170    -0.80630
O3977       O  0.78681675  0.91296879  0.42727326    -0.80700
Co3978     Co  0.80493779  0.78906502  0.41843450     1.51530
Co3979     Co  0.80505806  0.85974481  0.45265017     1.51690
Co3980     Co  0.81323336  0.87465181  0.41462950     1.51570
Co3981     Co  0.82553429  0.81387238  0.45433747     1.51470
O3982       O  0.81225090  0.83393729  0.43177249    -1.42600
C3983       C  0.75303318  0.76764420  0.44243782     1.08950
C3984       C  0.75597270  0.90985388  0.43650652     1.09040
C3985       C  0.74941957  0.83742402  0.39851321     1.08980
C3986       C  0.78962441  0.80166607  0.47741521     1.08960
O3987       O  0.89318627  0.98347459  0.53437837    -0.80660
O3988       O  0.91778797  0.91797668  0.60874389    -0.80690
O3989       O  0.91305158  0.88137696  0.56417128    -0.80690
O3990       O  0.90982286  0.52993378  0.58593124    -0.80640
O3991       O  0.87902990  0.91538872  0.57977283    -0.80760
O3992       O  0.87404804  0.51785552  0.56389835    -0.80680
O3993       O  0.89135282  0.96801202  0.59948975    -0.80660
O3994       O  0.88449982  0.93084945  0.54430633    -0.80700
C3995       C  0.88144899  0.95142652  0.53262620     1.09030
C3996       C  0.88930852  0.94177047  0.60953077     1.08910
C3997       C  0.88021050  0.88719395  0.57205927     1.09050
C3998       C  0.87687470  0.53325653  0.57714422     1.08930
O3999       O  0.96094359  0.54371472  0.56496177    -0.80660
O4000       O  0.97002281  0.89243765  0.58336578    -0.80740
O4001       O  0.96678890  0.94861069  0.53230332    -0.80680
O4002       O  0.96554567  0.99915719  0.60912018    -0.80660
O4003       O  0.99024125  0.95118843  0.59813129    -0.80710
O4004       O  0.97938576  0.49850604  0.54352536    -0.80670
O4005       O  0.99771344  0.50635040  0.57921343    -0.80630
O4006       O  0.99693875  0.90914138  0.56014300    -0.80700
Co4007     Co  0.92601599  0.50768532  0.55287640     1.51530
Co4008     Co  0.93359712  0.93537613  0.58773983     1.51690
Co4009     Co  0.94139761  0.92047886  0.55141470     1.51570
Co4010     Co  0.94518879  0.48551515  0.58818204     1.51470
O4011       O  0.93633732  0.96262568  0.56677643    -1.42600
C4012       C  0.99539612  0.53558453  0.57186971     1.08950
C4013       C  0.99903869  0.89059290  0.57293092     1.09040
C4014       C  0.97796338  0.98101574  0.53127258     1.08980
C4015       C  0.99399895  0.97543357  0.60868284     1.08960
O4016       O  0.72904214  0.69053946  0.53618087    -0.80660
O4017       O  0.71108196  0.75338486  0.61049924    -0.80690
O4018       O  0.70856357  0.79029075  0.56511680    -0.80690
O4019       O  0.72155393  0.64317411  0.58904457    -0.80640
O4020       O  0.74621258  0.75692849  0.58094038    -0.80760
O4021       O  0.75502632  0.65818561  0.56684743    -0.80680
O4022       O  0.73729711  0.70418755  0.60137547    -0.80660
O4023       O  0.73431019  0.74378652  0.54510358    -0.80700
C4024       C  0.73861874  0.72314424  0.53392790     1.09030
C4025       C  0.73893249  0.72901611  0.61162283     1.08910
C4026       C  0.74277092  0.78484525  0.57263334     1.09050
C4027       C  0.75331449  0.64091772  0.57996732     1.08930
O4028       O  0.67114730  0.62693387  0.56860392    -0.80660
O4029       O  0.65542286  0.77878064  0.58515578    -0.80740
O4030       O  0.65066134  0.72195283  0.53544773    -0.80680
O4031       O  0.66606277  0.67129247  0.61206481    -0.80660
O4032       O  0.63833810  0.71865812  0.60042086    -0.80710
O4033       O  0.64607161  0.66815653  0.54550982    -0.80670
O4034       O  0.63202041  0.66135940  0.58263612    -0.80630
O4035       O  0.62459815  0.75984018  0.56310849    -0.80700
Co4036     Co  0.70114191  0.66458879  0.55545973     1.51530
Co4037     Co  0.69322323  0.73604235  0.58962846     1.51690
Co4038     Co  0.67872316  0.75086700  0.55336029     1.51570
Co4039     Co  0.68335818  0.68537619  0.59078533     1.51470
O4040       O  0.68848430  0.70881329  0.56896544    -1.42600
C4041       C  0.63689162  0.63238047  0.57575170     1.08950
C4042       C  0.62547874  0.78058407  0.57480102     1.09040
C4043       C  0.63923259  0.68958681  0.53433614     1.08980
C4044       C  0.63648732  0.69411441  0.61128416     1.08960
O4045       O  0.91572822  0.74977897  0.65298506    -0.80660
O4046       O  0.90535637  0.69174233  0.72831476    -0.80690
O4047       O  0.91098423  0.63807339  0.67765409    -0.80690
O4048       O  0.92292069  0.78881326  0.69627460    -0.80640
O4049       O  0.88072053  0.65303497  0.70016576    -0.80760
O4050       O  0.88375589  0.75397484  0.68260654    -0.80680
O4051       O  0.89635498  0.74294533  0.71688495    -0.80660
O4052       O  0.89142688  0.69957721  0.66297350    -0.80700
C4053       C  0.88737548  0.72588209  0.65297081     1.09030
C4054       C  0.89387501  0.72431503  0.72901680     1.08910
C4055       C  0.88042826  0.63549497  0.68740854     1.09050
C4056       C  0.88792093  0.78299793  0.68953266     1.08930
O4057       O  0.97442864  0.77432040  0.67665801    -0.80660
O4058       O  0.96666164  0.62586200  0.69813718    -0.80740
O4059       O  0.96334247  0.66602484  0.65275014    -0.80680
O4060       O  0.97942926  0.72284413  0.72901267    -0.80660
O4061       O  0.99048557  0.67428034  0.71734994    -0.80710
O4062       O  0.98936633  0.71516509  0.66248567    -0.80670
O4063       O  0.00652109  0.75896232  0.69947972    -0.80630
O4064       O  0.00080549  0.66066237  0.68214470    -0.80700
Co4065     Co  0.93554767  0.73253790  0.67369251     1.51530
Co4066     Co  0.93476024  0.66395836  0.70991584     1.51690
Co4067     Co  0.94691636  0.68168892  0.67375769     1.51570
Co4068     Co  0.95238919  0.75012841  0.70927436     1.51470
O4069       O  0.94270705  0.70684230  0.69479675    -1.42600
C4070       C  0.00568371  0.77649895  0.68638095     1.08950
C4071       C  0.99987978  0.63264844  0.69044692     1.09040
C4072       C  0.99173503  0.68983416  0.65246387     1.08980
C4073       C  0.99048386  0.69033273  0.72992407     1.08960
O4074       O  0.61100901  0.57420039  0.85250759    -0.80660
O4075       O  0.60225979  0.53588182  0.79460348    -0.80690
O4076       O  0.61688162  0.02329767  0.83136817    -0.80690
O4077       O  0.62540729  0.62338286  0.81547694    -0.80640
O4078       O  0.57778201  0.99130463  0.81598267    -0.80760
O4079       O  0.59656595  0.63729038  0.83853970    -0.80680
O4080       O  0.59637102  0.59062469  0.78609978    -0.80660
O4081       O  0.58263602  0.52426421  0.86093559    -0.80700
C4082       C  0.61186362  0.54703421  0.86212306     1.09030
C4083       C  0.60835658  0.55845435  0.78397287     1.08910
C4084       C  0.61258383  0.99587896  0.82323718     1.09050
C4085       C  0.62580655  0.64091845  0.82826046     1.08930
O4086       O  0.50479240  0.61910611  0.83304074    -0.80660
O4087       O  0.49391595  0.02451914  0.81459924    -0.80740
O4088       O  0.51182856  0.56314463  0.85178249    -0.80680
O4089       O  0.51315865  0.61139148  0.79837822    -0.80660
O4090       O  0.51908665  0.56284305  0.78576748    -0.80710
O4091       O  0.54092219  0.60987054  0.86255484    -0.80670
O4092       O  0.54253894  0.65483122  0.81894835    -0.80630
O4093       O  0.52688082  0.00420969  0.83638423    -0.80700
Co4094     Co  0.55736118  0.59525574  0.84138526     1.51530
Co4095     Co  0.54751273  0.53177771  0.80402063     1.51690
Co4096     Co  0.56557981  0.54491288  0.84048635     1.51570
Co4097     Co  0.57029105  0.61684234  0.80566423     1.51470
O4098       O  0.56127662  0.57245167  0.81965285    -1.42600
C4099       C  0.50828126  0.64861088  0.82600734     1.08950
C4100       C  0.49543250  0.00435805  0.82682200     1.09040
C4101       C  0.51095239  0.58751543  0.86236490     1.08980
C4102       C  0.50786324  0.59548026  0.78587321     1.08960
O4103       O  0.71590925  0.91305922  0.65232469    -0.80660
O4104       O  0.73219270  0.97043958  0.72759623    -0.80690
O4105       O  0.72613403  0.52344726  0.67473785    -0.80690
O4106       O  0.71310388  0.87496412  0.69644879    -0.80640
O4107       O  0.75788461  0.50439158  0.69704411    -0.80760
O4108       O  0.75049793  0.91052634  0.68207491    -0.80680
O4109       O  0.73990434  0.92175849  0.71569174    -0.80660
O4110       O  0.74180624  0.96276677  0.66118512    -0.80700
C4111       C  0.74383152  0.93707915  0.65133387     1.09030
C4112       C  0.74334292  0.93779811  0.72818659     1.08910
C4113       C  0.75648026  0.52494576  0.68487680     1.09050
C4114       C  0.74702127  0.88125787  0.68924501     1.08930
O4115       O  0.66011899  0.88839974  0.67647555    -0.80660
O4116       O  0.67473967  0.53785008  0.69510391    -0.80740
O4117       O  0.66978109  0.99608104  0.65024821    -0.80680
O4118       O  0.65497614  0.94202703  0.72705041    -0.80660
O4119       O  0.64983712  0.99643624  0.71768109    -0.80710
O4120       O  0.64301058  0.94806515  0.66136731    -0.80670
O4121       O  0.62852934  0.90245523  0.69908461    -0.80630
O4122       O  0.63613930  0.50568916  0.67944111    -0.80700
Co4123     Co  0.69754777  0.93095118  0.67281737     1.51530
Co4124     Co  0.70453932  0.99893221  0.70813055     1.51690
Co4125     Co  0.68749626  0.98155347  0.67166842     1.51570
Co4126     Co  0.68311489  0.91345336  0.70859453     1.51470
O4127       O  0.69028308  0.95666937  0.69351718    -1.42600
C4128       C  0.62995768  0.88489577  0.68633272     1.08950
C4129       C  0.64070873  0.53363212  0.68723174     1.09040
C4130       C  0.64075423  0.97271641  0.65056461     1.08980
C4131       C  0.64287173  0.97446509  0.72852132     1.08960
O4132       O  0.76425030  0.81460936  0.85273243    -0.80660
O4133       O  0.76303136  0.85955130  0.79752633    -0.80690
O4134       O  0.75293213  0.87015387  0.83255015    -0.80690
O4135       O  0.74706295  0.77466778  0.81505626    -0.80640
O4136       O  0.78990541  0.90510207  0.81764307    -0.80760
O4137       O  0.77737324  0.75520257  0.83745127    -0.80680
O4138       O  0.77366329  0.81081549  0.78575777    -0.80660
O4139       O  0.78946074  0.86458461  0.86198430    -0.80700
C4140       C  0.76239411  0.83981365  0.86289191     1.09030
C4141       C  0.76152853  0.84326798  0.78500322     1.08910
C4142       C  0.75574955  0.89886665  0.82476003     1.09050
C4143       C  0.74691683  0.75436737  0.82721578     1.08930
O4144       O  0.86939585  0.77572078  0.83231116    -0.80660
O4145       O  0.87367915  0.87584905  0.81502600    -0.80740
O4146       O  0.86088069  0.82956519  0.85236554    -0.80680
O4147       O  0.85719877  0.78836840  0.79762861    -0.80660
O4148       O  0.84753025  0.83957031  0.78635562    -0.80710
O4149       O  0.83677629  0.77893651  0.86188658    -0.80670
O4150       O  0.83059018  0.74192244  0.81797362    -0.80630
O4151       O  0.84352139  0.89089298  0.83760735    -0.80700
Co4152     Co  0.81734000  0.79685292  0.84117438     1.51530
Co4153     Co  0.81953151  0.86704990  0.80519273     1.51690
Co4154     Co  0.80609064  0.84831523  0.84120707     1.51570
Co4155     Co  0.80109497  0.78188128  0.80523918     1.51470
O4156       O  0.81118352  0.82379798  0.82014756    -1.42600
C4157       C  0.86543194  0.74711029  0.82507908     1.08950
C4158       C  0.87352253  0.89384597  0.82764569     1.09040
C4159       C  0.86457694  0.80329905  0.86242933     1.08980
C4160       C  0.85936123  0.80710211  0.78552701     1.08960
C4161       C  0.75117062  0.91466655  0.74294660    -0.00680
C4162       C  0.74807613  0.87702716  0.74139318    -0.12550
C4163       C  0.75109319  0.85312980  0.75456328     0.01560
C4164       C  0.75638235  0.86622674  0.77003810    -0.00770
C4165       C  0.76062605  0.90380627  0.77152718    -0.12490
C4166       C  0.75894852  0.92758372  0.75829274     0.01440
H4167       H  0.74271098  0.86575875  0.72973074     0.14420
H4168       H  0.76659840  0.91504883  0.78315570     0.14420
C4169       C  0.76776954  0.96470804  0.76067574     0.36070
C4170       C  0.74828123  0.81545860  0.75182045     0.35980
N4171       N  0.77535332  0.99444284  0.76248334    -0.44270
N4172       N  0.74616500  0.78525213  0.74957710    -0.44270
C4173       C  0.62871598  0.99107791  0.74369917    -0.00680
C4174       C  0.65741755  0.99152638  0.75656642    -0.12550
C4175       C  0.65485288  0.01717587  0.76860837     0.01560
C4176       C  0.62214834  0.54290633  0.76851094    -0.00770
C4177       C  0.59336576  0.54255705  0.75563085    -0.12490
C4178       C  0.59647856  0.51735209  0.74336510     0.01440
H4179       H  0.68356864  0.97309602  0.75668929     0.14100
H4180       H  0.56724168  0.56104907  0.75550587     0.14420
C4181       C  0.56574177  0.51861054  0.73052210     0.36070
C4182       C  0.68748256  0.01768679  0.78071812     0.35980
N4183       N  0.54098078  0.51948288  0.72026558    -0.44270
N4184       N  0.71437992  0.01864825  0.79013282    -0.44270
C4185       C  0.90624122  0.92106708  0.82940344    -0.00680
C4186       C  0.94040868  0.91929936  0.81895464    -0.12550
C4187       C  0.96876754  0.94698602  0.81770710     0.01560
C4188       C  0.96522804  0.97588227  0.82794141    -0.00770
C4189       C  0.93259557  0.97754157  0.83891952    -0.12490
C4190       C  0.90212599  0.95082957  0.83941421     0.01440
H4191       H  0.94397302  0.89699785  0.81105740     0.14420
H4192       H  0.92993794  0.00041586  0.84654432     0.14420
C4193       C  0.86612933  0.95603753  0.84948833     0.36070
C4194       C  0.99997184  0.94582898  0.80528629     0.35980
N4195       N  0.83732459  0.96033683  0.85756597    -0.44270
N4196       N  0.52444580  0.94489594  0.79517796    -0.44270
C4197       C  0.65579450  0.67040008  0.82920101    -0.00680
C4198       C  0.66243432  0.68936723  0.81496433    -0.12550
C4199       C  0.69045462  0.71741300  0.81422147     0.01560
C4200       C  0.71370399  0.72694438  0.82809053    -0.00770
C4201       C  0.70624071  0.70850727  0.84255655    -0.12490
C4202       C  0.67683681  0.68070180  0.84327128     0.01440
H4203       H  0.64520833  0.68231201  0.80419738     0.14420
H4204       H  0.72343166  0.71567541  0.85326351     0.14420
C4205       C  0.66965382  0.66282319  0.85836960     0.36070
C4206       C  0.69471973  0.73478684  0.79875569     0.35980
N4207       N  0.66389025  0.64883627  0.87056441    -0.44270
N4208       N  0.69761672  0.74849487  0.78632648    -0.44270
C4209       C  0.64823494  0.97020557  0.82236621    -0.00680
C4210       C  0.68947407  0.98375889  0.82211512    -0.12550
C4211       C  0.72476069  0.96121751  0.82244970     0.01560
C4212       C  0.71939025  0.92400841  0.82364261    -0.00770
C4213       C  0.67812468  0.91037691  0.82399857    -0.12490
C4214       C  0.64275698  0.93297581  0.82323790     0.01440
H4215       H  0.69419477  0.51230466  0.82182669     0.14420
H4216       H  0.67343119  0.88188265  0.82500491     0.14420
C4217       C  0.60155801  0.91734938  0.82485849     0.36070
C4218       C  0.76605234  0.97718363  0.82217148     0.35980
N4219       N  0.56875898  0.90449043  0.82639099    -0.44270
N4220       N  0.79908601  0.99008213  0.82185436    -0.44270
C4221       C  0.90139769  0.72122374  0.82483126    -0.00680
C4222       C  0.94282611  0.73420954  0.82654693    -0.12550
C4223       C  0.97793200  0.71130862  0.82670790     0.01560
C4224       C  0.97223465  0.67426904  0.82548096    -0.00770
C4225       C  0.93088348  0.66116592  0.82391176    -0.12490
C4226       C  0.89577676  0.68414524  0.82337726     0.01440
H4227       H  0.94792722  0.76253478  0.82772790     0.14420
H4228       H  0.92595442  0.63276332  0.82296501     0.14420
C4229       C  0.85433050  0.66880621  0.82185583     0.36070
C4230       C  0.51936763  0.72635941  0.82883615     0.35980
N4231       N  0.82106377  0.65657954  0.82062896    -0.44270
N4232       N  0.55264037  0.73827631  0.83057787    -0.44270
C4233       C  0.88686246  0.74431048  0.74398231    -0.00680
C4234       C  0.85868196  0.73183527  0.75531651    -0.12550
C4235       C  0.84808816  0.75273328  0.76838245     0.01560
C4236       C  0.86618798  0.78724660  0.77049567    -0.00770
C4237       C  0.89438047  0.79973124  0.75914772    -0.12490
C4238       C  0.90517798  0.77872381  0.74612929     0.01440
H4239       H  0.84393710  0.70613444  0.75372659     0.14420
H4240       H  0.90927402  0.82535429  0.76077211     0.14420
C4241       C  0.93693793  0.79306223  0.73564637     0.36070
C4242       C  0.81742442  0.73774931  0.77913932     0.35980
N4243       N  0.96284080  0.80518152  0.72762898    -0.44270
N4244       N  0.79276846  0.72470641  0.78742747    -0.44270
C4245       C  0.60046593  0.85584925  0.68438647    -0.00680
C4246       C  0.56315882  0.86156049  0.67569853    -0.12550
C4247       C  0.53208627  0.83532340  0.67543198     0.01560
C4248       C  0.53930963  0.80249950  0.68357400    -0.00770
C4249       C  0.57797577  0.79638402  0.69140775    -0.12490
C4250       C  0.60804683  0.82301908  0.69223220     0.01440
H4251       H  0.55741923  0.88714861  0.66987918     0.14420
H4252       H  0.58377290  0.77138117  0.69774033     0.14420
C4253       C  0.64496564  0.81669219  0.70215456     0.36070
C4254       C  0.99196136  0.84423294  0.66811982     0.35980
N4255       N  0.67403337  0.81117254  0.71030734    -0.44270
N4256       N  0.95959747  0.85150899  0.66246032    -0.44270
C4257       C  0.78569421  0.55489124  0.68448707    -0.00680
C4258       C  0.80967554  0.56237857  0.67090909    -0.12550
C4259       C  0.84008011  0.58942178  0.67114839     0.01560
C4260       C  0.84612981  0.60938050  0.68517885    -0.00770
C4261       C  0.81971210  0.60298629  0.69826439    -0.12490
C4262       C  0.78995406  0.57614066  0.69805847     0.01440
H4263       H  0.80551952  0.54646469  0.66034180     0.14420
H4264       H  0.82287000  0.61833277  0.70904199     0.14420
C4265       C  0.76392215  0.57116334  0.71199347     0.36070
C4266       C  0.86434864  0.59582259  0.65692803     0.35980
N4267       N  0.74313217  0.56715694  0.72313421    -0.44270
N4268       N  0.88365552  0.60086493  0.64548007    -0.44270
C4269       C  0.78232184  0.85568109  0.68962143    -0.00680
C4270       C  0.82233290  0.86746409  0.69439475    -0.12550
C4271       C  0.85713048  0.84444296  0.69468072     0.01560
C4272       C  0.85218037  0.80867888  0.69003060    -0.00770
C4273       C  0.81179667  0.79705914  0.68531703    -0.12490
C4274       C  0.77723585  0.82025721  0.68487987     0.01440
H4275       H  0.82639415  0.89485849  0.69791695     0.14420
H4276       H  0.80729860  0.76992809  0.68150808     0.14420
C4277       C  0.73776079  0.80785173  0.67834032     0.36070
C4278       C  0.89745593  0.85869657  0.69943307     0.35980
N4279       N  0.70639674  0.79795239  0.67284686    -0.44270
N4280       N  0.92972802  0.87023889  0.70323630    -0.44270
C4281       C  0.53617561  0.60751524  0.69008383    -0.00680
C4282       C  0.54456062  0.59062947  0.67568492    -0.12550
C4283       C  0.57978578  0.56834507  0.67415007     0.01560
C4284       C  0.60625430  0.56064764  0.68749992    -0.00770
C4285       C  0.59920913  0.57899413  0.70160548    -0.12490
C4286       C  0.56559645  0.60304880  0.70283765     0.01440
H4287       H  0.52443774  0.59610819  0.66535637     0.14420
H4288       H  0.62057794  0.57497801  0.71169515     0.14420
C4289       C  0.56616565  0.62531231  0.71658837     0.36070
C4290       C  0.59105406  0.55826289  0.65827597     0.35980
N4291       N  0.57055498  0.64290140  0.72765494    -0.44270
N4292       N  0.60000986  0.55237845  0.64525304    -0.44270
C4293       C  0.49728003  0.61879115  0.77157002    -0.00680
C4294       C  0.00017612  0.65635365  0.77335519    -0.12550
C4295       C  0.99746489  0.68038872  0.76030767     0.01560
C4296       C  0.99176896  0.66742982  0.74486610    -0.00770
C4297       C  0.48551976  0.63014174  0.74325757    -0.12490
C4298       C  0.48836163  0.60608838  0.75628289     0.01440
H4299       H  0.00609067  0.66739541  0.78502924     0.14420
H4300       H  0.47877456  0.61927892  0.73161350     0.14420
C4301       C  0.48129789  0.56877897  0.75363116     0.36070
C4302       C  0.00163445  0.71794887  0.76310239     0.35980
N4303       N  0.47551070  0.53887058  0.75150261    -0.44270
N4304       N  0.00483221  0.74807164  0.76538090    -0.44270
C4305       C  0.59914459  0.69123462  0.62160950    -0.00680
C4306       C  0.60496754  0.69024148  0.63819426    -0.12550
C4307       C  0.57038022  0.68947715  0.64841580     0.01560
C4308       C  0.52892401  0.68768566  0.64204649    -0.00770
C4309       C  0.52313616  0.68742237  0.62543926    -0.12490
C4310       C  0.55770882  0.69008836  0.61520069     0.01440
H4311       H  0.63662724  0.69139191  0.64317477     0.14420
H4312       H  0.99146130  0.68666750  0.62045845     0.14420
C4313       C  0.54972903  0.69127729  0.59818718     0.36070
C4314       C  0.57855639  0.69115648  0.66538316     0.35980
N4315       N  0.54300959  0.69227514  0.58457142    -0.44270
N4316       N  0.58569976  0.69283465  0.67893269    -0.44270
C4317       C  0.77440132  0.72884071  0.62343759    -0.00680
C4318       C  0.79146227  0.76076292  0.62902672    -0.12550
C4319       C  0.82787201  0.76057907  0.63883185     0.01560
C4320       C  0.84885916  0.72826935  0.64265738    -0.00770
C4321       C  0.83049864  0.69644297  0.63770272    -0.12490
C4322       C  0.79343206  0.69635477  0.62853266     0.01440
H4323       H  0.77639801  0.78580628  0.62577824     0.14420
H4324       H  0.84496657  0.67128348  0.64117528     0.14420
C4325       C  0.77481885  0.66222799  0.62517312     0.36070
C4326       C  0.84037243  0.79318824  0.64616739     0.35980
N4327       N  0.76006108  0.63473854  0.62271299    -0.44270
N4328       N  0.84947495  0.81898891  0.65261236    -0.44270
C4329       C  0.85225528  0.93892568  0.62042639    -0.00680
C4330       C  0.82153283  0.96594065  0.61956983    -0.12550
C4331       C  0.78555559  0.96473966  0.62904991     0.01560
C4332       C  0.77912272  0.93602704  0.63981942    -0.00770
C4333       C  0.80944739  0.90866325  0.64071456    -0.12490
C4334       C  0.84588917  0.91006401  0.63119167     0.01440
H4335       H  0.82534167  0.48829962  0.61135223     0.14420
H4336       H  0.80536667  0.88687182  0.64920804     0.14420
C4337       C  0.87701694  0.88227382  0.63279172     0.36070
C4338       C  0.75527402  0.49327695  0.62722696     0.35980
N4339       N  0.90322562  0.86087127  0.63348934    -0.44270
N4340       N  0.73132000  0.51629712  0.62552747    -0.44270
C4341       C  0.60311661  0.97479874  0.63990382    -0.00680
C4342       C  0.60818079  0.97811215  0.62334542    -0.12550
C4343       C  0.57309786  0.97816202  0.61295418     0.01560
C4344       C  0.53188177  0.97659389  0.61916968    -0.00770
C4345       C  0.52680924  0.97423582  0.63573844    -0.12490
C4346       C  0.56186095  0.97250848  0.64608369     0.01440
H4347       H  0.63965809  0.97957210  0.61849953     0.14420
H4348       H  0.99533808  0.97267042  0.64059178     0.14420
C4349       C  0.55447828  0.96920628  0.66303077     0.36070
C4350       C  0.58045010  0.97979173  0.59598790     0.35980
N4351       N  0.54836229  0.96653068  0.67659417    -0.44270
N4352       N  0.58694217  0.98090929  0.58242136    -0.44270
C4353       C  0.59469253  0.80981498  0.57482567    -0.00680
C4354       C  0.57709238  0.82104037  0.58917213    -0.12550
C4355       C  0.54631074  0.84791820  0.58909594     0.01560
C4356       C  0.53317041  0.86391889  0.57443451    -0.00770
C4357       C  0.55233992  0.85344565  0.56026396    -0.12490
C4358       C  0.58275737  0.82695712  0.56031010     0.01440
H4359       H  0.58684479  0.80841933  0.60036974     0.14420
H4360       H  0.54311322  0.86558724  0.54889373     0.14420
C4361       C  0.60187966  0.81871904  0.54521534     0.36070
C4362       C  0.52956367  0.85895205  0.60416492     0.35980
N4363       N  0.61711591  0.81218349  0.53313308    -0.44270
N4364       N  0.51627370  0.86787350  0.61625688    -0.44270
C4365       C  0.84347375  0.55820391  0.58128530    -0.00680
C4366       C  0.85491782  0.59147195  0.58730635    -0.12550
C4367       C  0.82543459  0.61907465  0.58770337     0.01560
C4368       C  0.78370895  0.61257887  0.58283645    -0.00770
C4369       C  0.77146284  0.57863872  0.57821165    -0.12490
C4370       C  0.80107156  0.55162342  0.57702118     0.01440
H4371       H  0.88752877  0.59678230  0.59042211     0.14420
H4372       H  0.73922169  0.57400294  0.57432420     0.14420
C4373       C  0.78748108  0.51852284  0.57019793     0.36070
C4374       C  0.83905503  0.65409910  0.59221875     0.35980
N4375       N  0.77628972  0.49253654  0.56433514    -0.44270
N4376       N  0.85013207  0.68217594  0.59577746    -0.44270
C4377       C  0.53163616  0.56042868  0.57250015    -0.00680
C4378       C  0.54374655  0.57380888  0.58739660    -0.12550
C4379       C  0.57899546  0.59603255  0.58895125     0.01560
C4380       C  0.60237948  0.60595112  0.57534250    -0.00770
C4381       C  0.59170215  0.59110704  0.56068906    -0.12490
C4382       C  0.55711633  0.56836221  0.55916026     0.01440
H4383       H  0.52612505  0.56618929  0.59793357     0.14420
H4384       H  0.61053371  0.59742589  0.55029258     0.14420
C4385       C  0.55161973  0.55201297  0.54393755     0.36070
C4386       C  0.59282516  0.60503585  0.60480741     0.35980
N4387       N  0.55104044  0.53979082  0.53139191    -0.44270
N4388       N  0.60391882  0.61079230  0.61770394    -0.44270
C4389       C  0.77773363  0.81086508  0.57198624    -0.00680
C4390       C  0.77050776  0.84572365  0.57681910    -0.12550
C4391       C  0.80322786  0.87075119  0.57723007     0.01560
C4392       C  0.84427927  0.86142772  0.57220001    -0.00770
C4393       C  0.85104375  0.82649185  0.56703335    -0.12490
C4394       C  0.81848996  0.80123472  0.56709471     0.01440
H4395       H  0.73929000  0.85319576  0.58068936     0.14420
H4396       H  0.88205030  0.81864189  0.56310380     0.14420
C4397       C  0.82743365  0.76580095  0.56171484     0.36070
C4398       C  0.79320649  0.90561661  0.58294959     0.35980
N4399       N  0.83462619  0.73743098  0.55737443    -0.44270
N4400       N  0.78450691  0.93328433  0.58772089    -0.44270
C4401       C  0.76829659  0.78029997  0.49001443    -0.00680
C4402       C  0.77848610  0.74374110  0.49161817    -0.12550
C4403       C  0.76814630  0.72369666  0.50540680     0.01560
C4404       C  0.74766321  0.74035006  0.51804953    -0.00770
C4405       C  0.73511399  0.77636609  0.51584244    -0.12490
C4406       C  0.74527457  0.79623400  0.50210586     0.01440
H4407       H  0.79630794  0.73114290  0.48231059     0.14420
H4408       H  0.71808113  0.78966998  0.52515968     0.14420
C4409       C  0.73480522  0.83359531  0.50131594     0.36070
C4410       C  0.78088934  0.68692936  0.50660975     0.35980
N4411       N  0.72657150  0.86357412  0.50071950    -0.44270
N4412       N  0.79106444  0.65740119  0.50752855    -0.44270
C4413       C  0.86508498  0.89687750  0.48765892    -0.00680
C4414       C  0.85955509  0.93413256  0.48812780    -0.12550
C4415       C  0.86557081  0.95310476  0.50233102     0.01560
C4416       C  0.87533203  0.93451765  0.51668090    -0.00770
C4417       C  0.88268863  0.89741766  0.51589494    -0.12490
C4418       C  0.87799664  0.87879292  0.50168340     0.01440
H4419       H  0.84808793  0.94824478  0.47753872     0.14420
H4420       H  0.89176868  0.88234121  0.52655788     0.14420
C4421       C  0.88301433  0.84062252  0.50222564     0.36070
C4422       C  0.85966467  0.99112821  0.50191455     0.35980
N4423       N  0.88710971  0.81005482  0.50287562    -0.44270
N4424       N  0.85506077  0.02165329  0.50145898    -0.44270
C4425       C  0.50188731  0.54750997  0.49014379    -0.00680
C4426       C  0.47347827  0.55863109  0.50151386    -0.12550
C4427       C  0.96307105  0.53635429  0.51442159     0.01560
C4428       C  0.98103497  0.50156863  0.51606784    -0.00770
C4429       C  0.00813178  0.48994144  0.50438888    -0.12490
C4430       C  0.01965007  0.51268723  0.49177763     0.01440
H4431       H  0.45951845  0.58491800  0.50035420     0.14420
H4432       H  0.02309277  0.96410160  0.50585243     0.14420
C4433       C  0.05343565  0.50008741  0.48207651     0.36070
C4434       C  0.43447162  0.55085236  0.52588760     0.35980
N4435       N  0.08132090  0.48807007  0.47523405    -0.44270
N4436       N  0.41139201  0.56343020  0.53476195    -0.44270
C4437       C  0.90649294  0.73615930  0.43793365    -0.00680
C4438       C  0.93557426  0.73317691  0.45055397    -0.12550
C4439       C  0.96670098  0.70731976  0.45039454     0.01560
C4440       C  0.96948778  0.68478239  0.43719416    -0.00770
C4441       C  0.94154894  0.68818180  0.42434203    -0.12490
C4442       C  0.90949313  0.71334031  0.42467059     0.01440
H4443       H  0.93327155  0.75033122  0.46077569     0.14420
H4444       H  0.94418506  0.67059381  0.41427655     0.14420
C4445       C  0.88106073  0.71537482  0.41106899     0.36070
C4446       C  0.99524015  0.70430593  0.46395264     0.35980
N4447       N  0.85846178  0.71674771  0.40012400    -0.44270
N4448       N  0.01794384  0.70182975  0.47483719    -0.44270
C4449       C  0.66728926  0.99382859  0.43864761    -0.00680
C4450       C  0.65863807  0.96409313  0.42929464    -0.12550
C4451       C  0.68713041  0.93621684  0.42855931     0.01560
C4452       C  0.72543206  0.93837839  0.43698838    -0.00770
C4453       C  0.73527392  0.96858356  0.44578951    -0.12490
C4454       C  0.70623171  0.99629698  0.44683948     0.01440
H4455       H  0.62838157  0.96152584  0.42328591     0.14420
H4456       H  0.76526016  0.97010338  0.45209677     0.14420
C4457       C  0.71695629  0.52652387  0.45644854     0.36070
C4458       C  0.67546794  0.90530856  0.41956666     0.35980
N4459       N  0.72554050  0.55067032  0.46419512    -0.44270
N4460       N  0.66511430  0.88077231  0.41239367    -0.44270
C4461       C  0.91587485  0.91924426  0.43669233    -0.00680
C4462       C  0.91683885  0.94729732  0.44735882    -0.12550
C4463       C  0.95063723  0.97109182  0.44768118     0.01560
C4464       C  0.98594513  0.96588413  0.43774870    -0.00770
C4465       C  0.98616289  0.93673697  0.42772885    -0.12490
C4466       C  0.95166674  0.91375564  0.42696482     0.01440
H4467       H  0.88935922  0.95265039  0.45445819     0.14420
H4468       H  0.01256450  0.93298960  0.41981951     0.14420
C4469       C  0.95361819  0.88635078  0.41525133     0.36070
C4470       C  0.94409643  0.00300539  0.45654471     0.35980
N4471       N  0.95612076  0.86526914  0.40546531    -0.44270
N4472       N  0.93511814  0.52802353  0.46356387    -0.44270
C4473       C  0.71898581  0.74349829  0.44702274    -0.00680
C4474       C  0.67765181  0.75676355  0.44748939    -0.12550
C4475       C  0.64309291  0.73362659  0.44721713     0.01560
C4476       C  0.65009256  0.69677581  0.44593801    -0.00770
C4477       C  0.69154331  0.68366401  0.44635584    -0.12490
C4478       C  0.72589321  0.70659726  0.44715190     0.01440
H4479       H  0.67240282  0.78526890  0.44715522     0.14420
H4480       H  0.69718123  0.65533068  0.44545077     0.14420
C4481       C  0.76785952  0.69180260  0.44651505     0.36070
C4482       C  0.60115057  0.74850536  0.44676046     0.35980
N4483       N  0.80149348  0.68003012  0.44598714    -0.44270
N4484       N  0.56753646  0.76044738  0.44636961    -0.44270
C4485       C  0.62408303  0.62033678  0.49508029    -0.00680
C4486       C  0.59266948  0.62198913  0.50671429    -0.12550
C4487       C  0.59404072  0.64779281  0.51863669     0.01560
C4488       C  0.62715763  0.67285624  0.51911361    -0.00770
C4489       C  0.65839403  0.67117661  0.50745261    -0.12490
C4490       C  0.65754427  0.64496434  0.49576972     0.01440
H4491       H  0.56585394  0.60426231  0.50605034     0.14420
H4492       H  0.68519514  0.68882676  0.50811513     0.14420
C4493       C  0.69251658  0.64266330  0.48500369     0.36070
C4494       C  0.56074741  0.64848681  0.53020385     0.35980
N4495       N  0.72116328  0.64035002  0.47669036    -0.44270
N4496       N  0.53393864  0.64912200  0.53942565    -0.44270
C4497       C  0.90072721  0.58946039  0.89201266    -0.00680
C4498       C  0.94121062  0.58824993  0.89901435    -0.12550
C4499       C  0.97755776  0.58952603  0.88963018     0.01560
C4500       C  0.97379868  0.59069878  0.87284410    -0.00770
C4501       C  0.93330056  0.59210408  0.86582053    -0.12490
C4502       C  0.89694146  0.59206213  0.87524725     0.01440
H4503       H  0.94443508  0.58575076  0.91188142     0.14420
H4504       H  0.93006910  0.59283476  0.85290987     0.14420
C4505       C  0.85613134  0.59260390  0.86746583     0.36070
C4506       C  0.51825501  0.58752903  0.89746316     0.35980
N4507       N  0.82335282  0.59296108  0.86127136    -0.44270
N4508       N  0.55082476  0.58586403  0.90378217    -0.44270
C4509       C  0.71908917  0.54574075  0.89416351    -0.00680
C4510       C  0.71410725  0.51835891  0.88308541    -0.12550
C4511       C  0.67747628  0.51610496  0.87350961     0.01560
C4512       C  0.64678471  0.54324536  0.87389594    -0.00770
C4513       C  0.65066738  0.56937082  0.88538933    -0.12490
C4514       C  0.68484564  0.56957676  0.89605036     0.01440
H4515       H  0.73834050  0.49819878  0.88213035     0.14420
H4516       H  0.62588947  0.58906425  0.88641815     0.14420
C4517       C  0.68057393  0.59161841  0.90977615     0.36070
C4518       C  0.67132612  0.48479636  0.86419789     0.35980
N4519       N  0.67453979  0.60803338  0.92104148    -0.44270
N4520       N  0.66649472  0.45850717  0.85750833    -0.44270
C4521       C  0.65477174  0.83827956  0.89386857    -0.00680
C4522       C  0.67859489  0.80744572  0.89142386    -0.12550
C4523       C  0.71440819  0.80794083  0.88194446     0.01560
C4524       C  0.72757282  0.83994669  0.87452474    -0.00770
C4525       C  0.70507031  0.87135625  0.87741957    -0.12490
C4526       C  0.66892505  0.87080370  0.88703059     0.01440
H4527       H  0.66925352  0.78256714  0.89697785     0.14420
H4528       H  0.71517167  0.89616397  0.87190225     0.14420
C4529       C  0.64796123  0.90401376  0.89008586     0.36070
C4530       C  0.73787402  0.77522812  0.88051105     0.35980
N4531       N  0.63120135  0.93059644  0.89267488    -0.44270
N4532       N  0.75666300  0.74898841  0.87955041    -0.44270
C4533       C  0.90248333  0.80101125  0.87328133    -0.00680
C4534       C  0.91777310  0.76781147  0.87894231    -0.12550
C4535       C  0.95475727  0.76524700  0.88848965     0.01560
C4536       C  0.97724569  0.79632137  0.89252930    -0.00770
C4537       C  0.96170626  0.82922547  0.88697737    -0.12490
C4538       C  0.92510346  0.83188196  0.87758932     0.01440
H4539       H  0.90098439  0.74379176  0.87585239     0.14420
H4540       H  0.97810780  0.85339546  0.89019813     0.14420
C4541       C  0.91083602  0.86719514  0.87330184     0.36070
C4542       C  0.96768160  0.73072538  0.89455701     0.35980
N4543       N  0.89994569  0.89583932  0.87018100    -0.44270
N4544       N  0.97776916  0.70295349  0.89941563    -0.44270
C4545       C  0.97412258  0.91534989  0.93512164    -0.00680
C4546       C  0.93635994  0.90932913  0.92684954    -0.12550
C4547       C  0.90533751  0.93577055  0.92597125     0.01560
C4548       C  0.91293067  0.96886895  0.93322203    -0.00770
C4549       C  0.95211569  0.97531299  0.94047922    -0.12490
C4550       C  0.98226467  0.94866694  0.94181597     0.01440
H4551       H  0.93033711  0.88345327  0.92180438     0.14420
H4552       H  0.95821148  0.00060209  0.94607920     0.14420
C4553       C  0.51965320  0.95546486  0.95127284     0.36070
C4554       C  0.86508771  0.92703480  0.91886488     0.35980
N4555       N  0.54887041  0.96145241  0.95915769    -0.44270
N4556       N  0.83275532  0.91995740  0.91325844    -0.44270
C4557       C  0.66719985  0.72249988  0.93805576    -0.00680
C4558       C  0.69001104  0.71402236  0.95212881    -0.12550
C4559       C  0.71973060  0.68705606  0.95252731     0.01560
C4560       C  0.72817991  0.66848337  0.93849188    -0.00770
C4561       C  0.70937774  0.67955408  0.92399482    -0.12490
C4562       C  0.67760983  0.70537837  0.92374711     0.01440
H4563       H  0.68340479  0.72729379  0.96320785     0.14420
H4564       H  0.71744872  0.66633915  0.91304817     0.14420
C4565       C  0.65530535  0.71225307  0.90888598     0.36070
C4566       C  0.74132408  0.67934386  0.96752787     0.35980
N4567       N  0.63726327  0.71712538  0.89694992    -0.44270
N4568       N  0.75857561  0.67315368  0.97951977    -0.44270
C4569       C  0.90819781  0.66433250  0.94108652    -0.00680
C4570       C  0.94880477  0.65222408  0.93724417    -0.12550
C4571       C  0.98374990  0.67507852  0.93756095     0.01560
C4572       C  0.97835053  0.71106473  0.94141738    -0.00770
C4573       C  0.93812163  0.72317123  0.94544643    -0.12490
C4574       C  0.90338698  0.70020915  0.94560370     0.01440
H4575       H  0.95342410  0.62471893  0.93409784     0.14420
H4576       H  0.93388053  0.75076734  0.94861270     0.14420
C4577       C  0.86325013  0.71457143  0.95024694     0.36070
C4578       C  0.02448406  0.66148160  0.93320441     0.35980
N4579       N  0.83119072  0.72610108  0.95407491    -0.44270
N4580       N  0.55724583  0.65084145  0.92970591    -0.44270
C4581       C  0.72532035  0.96294503  0.94160607    -0.00680
C4582       C  0.73305734  0.92625936  0.94323792    -0.12550
C4583       C  0.69973943  0.90168063  0.94364385     0.01560
C4584       C  0.65747613  0.91360051  0.94244468    -0.00770
C4585       C  0.64971762  0.95021694  0.94134224    -0.12490
C4586       C  0.68288435  0.97478546  0.94099583     0.01440
H4587       H  0.76525791  0.91667033  0.94402271     0.14420
H4588       H  0.61753602  0.95974143  0.94049664     0.14420
C4589       C  0.67201696  0.51202681  0.94079974     0.36070
C4590       C  0.70977204  0.86444224  0.94585461     0.35980
N4591       N  0.66274445  0.54175996  0.94089848    -0.44270
N4592       N  0.71776685  0.83461320  0.94772318    -0.44270
C4593       C  0.76196183  0.52240889  0.99527961    -0.00680
C4594       C  0.72884517  0.53183017  0.00509872    -0.12550
C4595       C  0.71590925  0.00885993  0.01753411     0.01560
C4596       C  0.73692785  0.97578735  0.02073104    -0.00770
C4597       C  0.76978350  0.96618722  0.01085148    -0.12490
C4598       C  0.78214649  0.48875859  0.99819209     0.01440
H4599       H  0.71187776  0.55641777  0.00265100     0.14420
H4600       H  0.78661160  0.94151705  0.01327819     0.14420
C4601       C  0.81624865  0.47635570  0.98847191     0.36070
C4602       C  0.67964332  0.01961685  0.02652021     0.35980
N4603       N  0.84359738  0.46583710  0.98085978    -0.44270
N4604       N  0.65042206  0.02857590  0.03353611    -0.44270
C4605       C  0.62265735  0.89753432  0.02335594    -0.00680
C4606       C  0.61862755  0.85993018  0.02525645    -0.12550
C4607       C  0.61743186  0.83679015  0.01222331     0.01560
C4608       C  0.61944762  0.85070371  0.99658127    -0.00770
C4609       C  0.62347948  0.88822746  0.99468353    -0.12490
C4610       C  0.62470399  0.91134899  0.00768097     0.01440
H4611       H  0.61727793  0.84800752  0.03712431     0.14420
H4612       H  0.62473141  0.90017629  0.98281404     0.14420
C4613       C  0.62697780  0.94901494  0.00433785     0.36070
C4614       C  0.61459958  0.79901171  0.01532736     0.35980
N4615       N  0.62809187  0.97906337  0.00117990    -0.44270
N4616       N  0.61245097  0.76873145  0.01787698    -0.44270
C4617       C  0.87518212  0.59962379  0.99405669    -0.00680
C4618       C  0.87680836  0.63732889  0.99200595    -0.12550
C4619       C  0.87759628  0.66065760  0.00494559     0.01560
C4620       C  0.87748163  0.64688771  0.02062587    -0.00770
C4621       C  0.87497444  0.60924077  0.02267048    -0.12490
C4622       C  0.87401288  0.58591372  0.00974044     0.01440
H4623       H  0.87692544  0.64917263  0.98010713     0.14420
H4624       H  0.87502813  0.59738953  0.03456618     0.14420
C4625       C  0.87290965  0.54815267  0.01303666     0.36070
C4626       C  0.87822986  0.69846705  0.00171462     0.35980
N4627       N  0.87239307  0.51792899  0.01585978    -0.44270
N4628       N  0.87858636  0.72876542  0.99905913    -0.44270
C4629       C  0.53441462  0.58798683  0.08074265    -0.00680
C4630       C  0.52636627  0.55777736  0.09034449    -0.12550
C4631       C  0.55533552  0.52978838  0.09137084     0.01560
C4632       C  0.59356421  0.53262205  0.08320185    -0.00770
C4633       C  0.60276514  0.56341620  0.07441175    -0.12490
C4634       C  0.57348400  0.59076912  0.07284835     0.01440
H4635       H  0.99631446  0.55496561  0.09624729     0.14420
H4636       H  0.63215070  0.56518963  0.06794168     0.14420
C4637       C  0.58391444  0.61988069  0.06217871     0.36070
C4638       C  0.54386764  0.99798023  0.10006456     0.35980
N4639       N  0.59290615  0.64226957  0.05321972    -0.44270
N4640       N  0.53339839  0.97286233  0.10709839    -0.44270
C4641       C  0.84859699  0.78589326  0.07852531    -0.00680
C4642       C  0.81064369  0.77838840  0.08612115    -0.12550
C4643       C  0.77917064  0.80427928  0.08676654     0.01560
C4644       C  0.78617595  0.83830756  0.07980622    -0.00770
C4645       C  0.82489148  0.84584352  0.07264047    -0.12490
C4646       C  0.85591532  0.81982997  0.07179500     0.01440
H4647       H  0.80499278  0.75188219  0.09094811     0.14420
H4648       H  0.83031177  0.87174726  0.06713487     0.14420
C4649       C  0.89391177  0.82800844  0.06315050     0.36070
C4650       C  0.73902306  0.79415467  0.09336244     0.35980
N4651       N  0.92400599  0.83476945  0.05606714    -0.44270
N4652       N  0.70676500  0.78597155  0.09853788    -0.44270
C4653       C  0.84540387  0.58469618  0.07561699    -0.00680
C4654       C  0.81326239  0.58857671  0.06409697    -0.12550
C4655       C  0.77760827  0.56645904  0.06429364     0.01560
C4656       C  0.77396468  0.53910461  0.07607819    -0.00770
C4657       C  0.80588659  0.53633204  0.08790540    -0.12490
C4658       C  0.84112610  0.55879709  0.08780577     0.01440
H4659       H  0.81572056  0.60939153  0.05501842     0.14420
H4660       H  0.80298907  0.51689949  0.09748140     0.14420
C4661       C  0.87218339  0.55529592  0.10048344     0.36070
C4662       C  0.74532772  0.57353017  0.05243443     0.35980
N4663       N  0.89704992  0.55280597  0.11066348    -0.44270
N4664       N  0.71996496  0.58088888  0.04290935    -0.44270
C4665       C  0.53122894  0.78379126  0.07410722    -0.00680
C4666       C  0.52478654  0.81680755  0.08102858    -0.12550
C4667       C  0.55764953  0.84142683  0.08229294     0.01560
C4668       C  0.59826489  0.83323857  0.07644152    -0.00770
C4669       C  0.60420341  0.80019535  0.06924178    -0.12490
C4670       C  0.57123020  0.77564901  0.06804291     0.01440
H4671       H  0.49395442  0.82324445  0.08562984     0.14420
H4672       H  0.63466006  0.79349522  0.06439968     0.14420
C4673       C  0.57877820  0.74316324  0.05973786     0.36070
C4674       C  0.54789095  0.87498776  0.08936405     0.35980
N4675       N  0.58529154  0.71757328  0.05276054    -0.44270
N4676       N  0.53931973  0.90178395  0.09502230    -0.44270
C4677       C  0.49480178  0.72269776  0.02039505    -0.00680
C4678       C  0.50240920  0.75963364  0.02264523    -0.12550
C4679       C  0.50418176  0.78443325  0.00987386     0.01560
C4680       C  0.49917609  0.77291806  0.99413048    -0.00770
C4681       C  0.99037273  0.73614362  0.99191819    -0.12490
C4682       C  0.98896686  0.71129454  0.00467771     0.01440
H4683       H  0.50645846  0.76975987  0.03459662     0.14420
H4684       H  0.98622435  0.72604792  0.97996303     0.14420
C4685       C  0.98305613  0.67422444  0.00117706     0.36070
C4686       C  0.51081312  0.82142406  0.01336102     0.35980
N4687       N  0.97876832  0.64447924  0.99829310    -0.44270
N4688       N  0.51575275  0.85109384  0.01625351    -0.44270
C4689       C  0.60088860  0.70642419  0.14349633    -0.00680
C4690       C  0.58386562  0.67361368  0.13899262    -0.12550
C4691       C  0.54865858  0.67161746  0.12880372     0.01560
C4692       C  0.52853947  0.70305804  0.12305519    -0.00770
C4693       C  0.54532256  0.73602428  0.12763709    -0.12490
C4694       C  0.58141140  0.73789899  0.13757742     0.01440
H4695       H  0.59843170  0.64913242  0.14336389     0.14420
H4696       H  0.53076457  0.76040899  0.12318340     0.14420
C4697       C  0.59750536  0.77233242  0.14171888     0.36070
C4698       C  0.53361342  0.63666569  0.12477503     0.35980
N4699       N  0.61099637  0.79975351  0.14508089    -0.44270
N4700       N  0.52189395  0.60853428  0.12160670    -0.44270
C4701       C  0.77681380  0.66809014  0.14203319    -0.00680
C4702       C  0.79580503  0.70020656  0.13733348    -0.12550
C4703       C  0.83173313  0.70085094  0.12782548     0.01560
C4704       C  0.85041122  0.66866186  0.12292957    -0.00770
C4705       C  0.83157519  0.63638164  0.12764397    -0.12490
C4706       C  0.79484365  0.63582148  0.13692351     0.01440
H4707       H  0.78249329  0.72519052  0.14115048     0.14420
H4708       H  0.84509177  0.61152340  0.12382994     0.14420
C4709       C  0.77715957  0.60176177  0.14133461     0.36070
C4710       C  0.84923733  0.73520333  0.12371345     0.35980
N4711       N  0.76310664  0.57440092  0.14486465    -0.44270
N4712       N  0.86293667  0.76286347  0.12048063    -0.44270
C4713       C  0.85494804  0.95226679  0.14357730    -0.00680
C4714       C  0.81512056  0.94588993  0.15024614    -0.12550
C4715       C  0.77843582  0.94620673  0.14070403     0.01560
C4716       C  0.78124949  0.95230711  0.12411342    -0.00770
C4717       C  0.82112604  0.95741516  0.11735507    -0.12490
C4718       C  0.85769571  0.95838364  0.12695539     0.01440
H4719       H  0.81264610  0.94058985  0.16297545     0.14420
H4720       H  0.82378917  0.96028505  0.10450973     0.14420
C4721       C  0.89780853  0.96393739  0.11939898     0.36070
C4722       C  0.73856155  0.93794836  0.14799040     0.35980
N4723       N  0.92999577  0.96844737  0.11337052    -0.44270
N4724       N  0.70657484  0.93099595  0.15372269    -0.44270
C4725       C  0.60814958  0.91200233  0.12689254    -0.00680
C4726       C  0.58560898  0.88040603  0.12977164    -0.12550
C4727       C  0.54910312  0.88024460  0.13925324     0.01560
C4728       C  0.53486141  0.91211939  0.14613542    -0.00770
C4729       C  0.55850607  0.94323564  0.14359583    -0.12490
C4730       C  0.59442534  0.94349139  0.13414953     0.01440
H4731       H  0.59545871  0.85621287  0.12405894     0.14420
H4732       H  0.54855117  0.96800397  0.14881040     0.14420
C4733       C  0.61614641  0.97693311  0.13190517     0.36070
C4734       C  0.52705978  0.84717087  0.14178737     0.35980
N4735       N  0.63306427  0.50388809  0.13005589    -0.44270
N4736       N  0.50923233  0.82074801  0.14394666    -0.44270
C4737       C  0.53696435  0.53627117  0.18394975    -0.00680
C4738       C  0.57851139  0.52810813  0.18010239    -0.12550
C4739       C  0.60963833  0.55415452  0.18084822     0.01560
C4740       C  0.59887194  0.58881281  0.18564359    -0.00770
C4741       C  0.55714891  0.59716675  0.18897241    -0.12490
C4742       C  0.52606439  0.57126611  0.18816302     0.01440
H4743       H  0.58689390  0.00103963  0.17718140     0.14420
H4744       H  0.54909426  0.62378158  0.19269725     0.14420
C4745       C  0.98425962  0.58121790  0.19294432     0.36070
C4746       C  0.65266558  0.54382752  0.17790384     0.35980
N4747       N  0.95152312  0.59075856  0.19702762    -0.44270
N4748       N  0.68709380  0.53542531  0.17558538    -0.44270
C4749       C  0.78444180  0.78809740  0.18640058    -0.00680
C4750       C  0.81158362  0.79406186  0.17359669    -0.12550
C4751       C  0.84170259  0.82131049  0.17422278     0.01560
C4752       C  0.84490668  0.84263990  0.18799664    -0.00770
C4753       C  0.81518943  0.83802459  0.20012397    -0.12490
C4754       C  0.78523028  0.81122205  0.19942253     0.01440
H4755       H  0.81017185  0.77676533  0.16338888     0.14420
H4756       H  0.81599814  0.85465981  0.21055590     0.14420
C4757       C  0.75552303  0.80822145  0.21229886     0.36070
C4758       C  0.86868108  0.82647700  0.16063131     0.35980
N4759       N  0.73165260  0.80661002  0.22260742    -0.44270
N4760       N  0.89009653  0.83065607  0.14967741    -0.44270
C4761       C  0.85543983  0.53804595  0.19003608    -0.00680
C4762       C  0.82146988  0.53067489  0.20004214    -0.12550
C4763       C  0.78632938  0.55323719  0.20032506     0.01560
C4764       C  0.78448716  0.58377978  0.19014679    -0.00770
C4765       C  0.81872229  0.59073043  0.18000202    -0.12490
C4766       C  0.85368111  0.56797086  0.17973501     0.01440
H4767       H  0.82237323  0.50699755  0.20761244     0.14420
H4768       H  0.81810523  0.61384930  0.17208204     0.14420
C4769       C  0.88647993  0.57493624  0.16831449     0.36070
C4770       C  0.75326530  0.54434831  0.21136406     0.35980
N4771       N  0.91265164  0.58034152  0.15909483    -0.44270
N4772       N  0.72692369  0.53695457  0.22024147    -0.44270
C4773       C  0.60654316  0.78809045  0.19548835    -0.00680
C4774       C  0.57042698  0.77984371  0.20441366    -0.12550
C4775       C  0.53578559  0.80354995  0.20505775     0.01560
C4776       C  0.53581699  0.83599649  0.19610645    -0.00770
C4777       C  0.57249619  0.84413778  0.18734161    -0.12490
C4778       C  0.60749960  0.82098840  0.18715978     0.01440
H4779       H  0.56936087  0.75478072  0.21101053     0.14420
H4780       H  0.57403328  0.86882612  0.18048631     0.14420
C4781       C  0.64388570  0.83120906  0.17800186     0.36070
C4782       C  0.50107288  0.79397622  0.21521029     0.35980
N4783       N  0.67312136  0.83927336  0.17067201    -0.44270
N4784       N  0.97342928  0.78641301  0.22347405    -0.44270
C4785       C  0.94569005  0.81727036  0.35713621    -0.00680
C4786       C  0.95795881  0.80206347  0.37196387    -0.12550
C4787       C  0.93058822  0.80091392  0.38484949     0.01560
C4788       C  0.89021987  0.81614983  0.38315948    -0.00770
C4789       C  0.87735708  0.83047466  0.36828548    -0.12490
C4790       C  0.90444727  0.83117694  0.35530875     0.01440
H4791       H  0.98966501  0.79184925  0.37372327     0.14420
H4792       H  0.84613070  0.84199595  0.36688255     0.14420
C4793       C  0.88938515  0.84807720  0.34067791     0.36070
C4794       C  0.94670355  0.78742700  0.39998191     0.35980
N4795       N  0.87715915  0.86178501  0.32902409    -0.44270
N4796       N  0.96094892  0.77748885  0.41204083    -0.44270
C4797       C  0.66949581  0.82321654  0.35816958    -0.00680
C4798       C  0.69625406  0.85285845  0.35861363    -0.12550
C4799       C  0.72041669  0.85980363  0.37227201     0.01560
C4800       C  0.71803677  0.83661450  0.38563277    -0.00770
C4801       C  0.69114571  0.80717575  0.38521146    -0.12490
C4802       C  0.66678613  0.80036783  0.37167874     0.01440
H4803       H  0.69773282  0.87094539  0.34839872     0.14420
H4804       H  0.69020389  0.78881032  0.39535756     0.14420
C4805       C  0.64048484  0.76905328  0.37178853     0.36070
C4806       C  0.74891949  0.88966797  0.37199441     0.35980
N4807       N  0.61945141  0.74396498  0.37190901    -0.44270
N4808       N  0.77181218  0.91356169  0.37176677    -0.44270
C4809       C  0.65797426  0.71543420  0.25004139    -0.00680
C4810       C  0.61764470  0.71869383  0.25612135    -0.12550
C4811       C  0.60750227  0.74594717  0.26666332     0.01560
C4812       C  0.63939086  0.76916481  0.27274461    -0.00770
C4813       C  0.68000781  0.76447974  0.26740852    -0.12490
C4814       C  0.68945023  0.73937426  0.25593639     0.01440
H4815       H  0.59265918  0.70249485  0.25111861     0.14420
H4816       H  0.70413987  0.78297897  0.27117786     0.14420
C4817       C  0.73102225  0.74361195  0.24965258     0.36070
C4818       C  0.56317257  0.74971478  0.26945737     0.35980
N4819       N  0.76480329  0.75032982  0.24554415    -0.44270
N4820       N  0.52688310  0.74979109  0.27040486    -0.44270
C4821       C  0.49170606  0.90551484  0.24813912    -0.00680
C4822       C  0.95299468  0.90014413  0.25613727    -0.12550
C4823       C  0.94580050  0.87092742  0.26626719     0.01560
C4824       C  0.97906059  0.84831983  0.27037224    -0.00770
C4825       C  0.51783564  0.85298534  0.26240517    -0.12490
C4826       C  0.52395369  0.88060038  0.25127372     0.01440
H4827       H  0.92723361  0.91774653  0.25460747     0.14420
H4828       H  0.54407757  0.83529230  0.26492394     0.14420
C4829       C  0.56332691  0.88215342  0.24282226     0.36070
C4830       C  0.90363422  0.86363014  0.27170907     0.35980
N4831       N  0.59477262  0.88318175  0.23599925    -0.44270
N4832       N  0.87000440  0.85696173  0.27598317    -0.44270
C4833       C  0.96358049  0.58110817  0.39899882    -0.00680
C4834       C  0.92264350  0.57206886  0.40392627    -0.12550
C4835       C  0.89102080  0.56330343  0.39275656     0.01560
C4836       C  0.90030364  0.56271650  0.37634377    -0.00770
C4837       C  0.94112617  0.57121666  0.37142655    -0.12490
C4838       C  0.97268038  0.58010066  0.38246998     0.01440
H4839       H  0.91510530  0.57246198  0.41651366     0.14420
H4840       H  0.94820451  0.57147389  0.35877858     0.14420
C4841       C  0.51428676  0.58695428  0.37636206     0.36070
C4842       C  0.84869786  0.55723808  0.39826252     0.35980
N4843       N  0.54751533  0.59228359  0.37134048    -0.44270
N4844       N  0.81464904  0.55264282  0.40259821    -0.44270
C4845       C  0.70841646  0.55898360  0.37084875    -0.00680
C4846       C  0.68375614  0.52886189  0.37470985    -0.12550
C4847       C  0.64862711  0.53154038  0.38474380     0.01560
C4848       C  0.63813861  0.56468012  0.39115394    -0.00770
C4849       C  0.66035375  0.59497785  0.38611093    -0.12490
C4850       C  0.69491402  0.59263300  0.37616606     0.01440
H4851       H  0.69255014  0.50302751  0.37029046     0.14420
H4852       H  0.65153052  0.62088427  0.39050669     0.14420
C4853       C  0.71558564  0.62560548  0.37182961     0.36070
C4854       C  0.62492446  0.49999282  0.38867972     0.35980
N4855       N  0.73197476  0.65207756  0.36840279    -0.44270
N4856       N  0.60556667  0.97475635  0.39165974    -0.44270
C4857       C  0.74702636  0.64035011  0.24540514    -0.00680
C4858       C  0.72294742  0.60831515  0.24567752    -0.12550
C4859       C  0.72475338  0.58356922  0.25864363     0.01560
C4860       C  0.74976180  0.59081962  0.27209924    -0.00770
C4861       C  0.76877098  0.62503108  0.27257199    -0.12490
C4862       C  0.76982216  0.64848741  0.25929124     0.01440
H4863       H  0.70376219  0.60173073  0.23536834     0.14420
H4864       H  0.78606896  0.63296351  0.28300149     0.14420
C4865       C  0.79978070  0.67723349  0.25953425     0.36070
C4866       C  0.69926378  0.55196514  0.25821693     0.35980
N4867       N  0.82513284  0.69926759  0.25990575    -0.44270
N4868       N  0.67824777  0.52688619  0.25800422    -0.44270
C4869       C  0.96146092  0.71206279  0.31653588    -0.00680
C4870       C  0.95022250  0.69171685  0.30338559    -0.12550
C4871       C  0.92604493  0.66127400  0.30521734     0.01560
C4872       C  0.91218678  0.65110497  0.32058138    -0.00770
C4873       C  0.92526293  0.67065266  0.33388658    -0.12490
C4874       C  0.95039307  0.70079259  0.33198011     0.01440
H4875       H  0.95988097  0.70011724  0.29150263     0.14420
H4876       H  0.91538355  0.66253588  0.34576308     0.14420
C4877       C  0.96659434  0.71803199  0.34596799     0.36070
C4878       C  0.91492372  0.64284737  0.29084725     0.35980
N4879       N  0.98034103  0.73080240  0.35733694    -0.44270
N4880       N  0.90810260  0.62976347  0.27870418    -0.44270
C4881       C  0.64520464  0.91468339  0.31359446    -0.00680
C4882       C  0.63253795  0.95011561  0.31523411    -0.12550
C4883       C  0.66256051  0.97713635  0.31721817     0.01560
C4884       C  0.70577883  0.96824704  0.31849358    -0.00770
C4885       C  0.71816309  0.93329919  0.31602753    -0.12490
C4886       C  0.68873838  0.90678654  0.31343956     0.01440
H4887       H  0.59922065  0.95649795  0.31542531     0.14420
H4888       H  0.75141215  0.92640662  0.31642141     0.14420
C4889       C  0.70556994  0.87160718  0.31212030     0.36070
C4890       C  0.64780014  0.51318721  0.31820322     0.35980
N4891       N  0.72247870  0.84448241  0.31159210    -0.44270
N4892       N  0.63464880  0.54182061  0.31856325    -0.44270
C4893       C  0.72602457  0.65980363  0.31646098    -0.00680
C4894       C  0.73571736  0.69235132  0.30936740    -0.12550
C4895       C  0.70593859  0.71955510  0.30848861     0.01560
C4896       C  0.66388614  0.71339662  0.31339106    -0.00770
C4897       C  0.65338767  0.68003052  0.31970483    -0.12490
C4898       C  0.68434336  0.65375474  0.32190007     0.01440
H4899       H  0.76779223  0.69754438  0.30563691     0.14420
H4900       H  0.62156244  0.67521031  0.32377376     0.14420
C4901       C  0.67279689  0.62200888  0.33070334     0.36070
C4902       C  0.72170297  0.75345923  0.30324840     0.35980
N4903       N  0.66351266  0.59727633  0.33826483    -0.44270
N4904       N  0.73869935  0.77903641  0.29905383    -0.44270
C4905       C  0.90075816  0.96398091  0.31675227    -0.00680
C4906       C  0.93560015  0.96875045  0.32720993    -0.12550
C4907       C  0.97183888  0.94751702  0.32660387     0.01560
C4908       C  0.97468340  0.92040341  0.31528256    -0.00770
C4909       C  0.94201590  0.91806217  0.30376655    -0.12490
C4910       C  0.90540428  0.93955484  0.30434677     0.01440
H4911       H  0.93426377  0.98861372  0.33640475     0.14420
H4912       H  0.94391394  0.89789604  0.29493174     0.14420
C4913       C  0.87250231  0.93527206  0.29254141     0.36070
C4914       C  0.00527979  0.95361723  0.33809264     0.35980
N4915       N  0.84580769  0.93262817  0.28311004    -0.44270
N4916       N  0.53205719  0.95847099  0.34729149    -0.44270
C4917       C  0.86973500  0.53828852  0.27059921    -0.00680
C4918       C  0.90227064  0.51359308  0.27285026    -0.12550
C4919       C  0.91296894  0.98928357  0.26097929     0.01560
C4920       C  0.88466876  0.98223041  0.24788604    -0.00770
C4921       C  0.85058921  0.00617505  0.24623327    -0.12490
C4922       C  0.84591357  0.53566465  0.25632318     0.01440
H4923       H  0.92216782  0.51566113  0.28343762     0.14420
H4924       H  0.83149523  0.00531007  0.23543900     0.14420
C4925       C  0.82679323  0.56648362  0.24912180     0.36070
C4926       C  0.95660099  0.97912659  0.26173501     0.35980
N4927       N  0.81503525  0.59075053  0.24170093    -0.44270
N4928       N  0.99230383  0.97400021  0.26356218    -0.44270
loop_ 
_geom_bond_atom_site_label_1 
_geom_bond_atom_site_label_2 
_geom_bond_distance 
_geom_bond_site_symmetry_2 
_ccdc_geom_bond_type 
O1            C9   1.264       .  A
O1          Co21   2.022       .  S
O2           C10   1.253       .  A
O2          Co22   1.941       .  S
O3           C11   1.254       .  A
O3          Co23   1.966       .  S
O4           C12   1.264       .  A
O4        Co1256   1.938       .  S
O5           C11   1.263       .  A
O5          Co22   1.992       .  S
O6           C12   1.297       .  A
O6        Co1253   2.074       .  S
O7           C10   1.273       .  A
O7          Co24   2.035       .  S
O8            C9   1.274       .  A
O8          Co23   2.019       .  S
C9         C1221   1.509       .  S
C10        C1140   1.479       .  S
C11        C1176   1.461       .  S
C12        C1209   1.510       .  S
O13          C26   1.245       .  A
O13       Co1253   1.978       .  S
O14          C27   1.254       .  A
O14         Co22   1.934       .  S
O15          C28   1.259       .  A
O15         Co23   2.016       .  S
O16          C29   1.258       .  A
O16         Co24   1.975       .  S
O17          C29   1.262       .  A
O17         Co22   1.983       .  S
O18          C28   1.286       .  A
O18         Co21   2.035       .  S
O19          C26   1.265       .  A
O19       Co1256   2.006       .  S
O20          C27   1.284       .  A
O20         Co23   2.040       .  S
Co21       O1238   2.074   1_545  S
Co21       O1245   1.978       .  S
Co21         O25   2.050       .  S
Co22         O25   2.048       .  S
Co23         O25   2.050       .  S
Co24       O1236   1.938   1_545  S
Co24       O1251   2.006   1_545  S
Co24         O25   2.070       .  S
C26        C1188   1.473       .  S
C27        C1197   1.474       .  S
C28        C1164   1.520       .  S
C29        C1149   1.492       .  S
O30          C38   1.260       .  A
O30         Co50   1.993       .  S
O31          C39   1.280       .  A
O31         Co51   1.987       .  S
O32          C40   1.269       .  A
O32         Co52   2.017       .  S
O33        C2505   1.272   1_455  A
O33         Co53   2.001       .  S
O34          C40   1.261       .  A
O34         Co51   1.970       .  S
O35          C41   1.279       .  A
O35         Co50   1.930       .  S
O36          C39   1.255       .  A
O36         Co53   1.948       .  S
O37        C2502   1.264       .  A
O37         Co52   2.016       .  S
C38        O2501   1.264       .  A
C38        C1212   1.504       .  S
C39        C1116   1.500       .  S
C40        C1185   1.472       .  S
C41        O2497   1.272       .  A
C41        C1128   1.483       .  S
O42          C55   1.250       .  A
O42         Co50   1.991       .  S
O43          C56   1.274       .  A
O43         Co51   2.018       .  S
O44        C2521   1.267   1_455  A
O44         Co52   1.964       .  S
O45          C58   1.252       .  A
O45         Co53   2.011       .  S
O46          C58   1.239       .  A
O46         Co51   1.958       .  S
O47          C57   1.274       .  A
O47         Co50   2.008       .  S
O48        C2519   1.237   1_455  A
O48         Co53   1.921       .  S
O49          C56   1.262       .  A
O49         Co52   1.959       .  S
Co50       O2518   2.002       .  S
Co51         O54   2.015       .  S
Co52         O54   2.079       .  S
Co53         O54   2.190       .  S
O54       Co2514   2.002       .  S
C55        O2512   1.237       .  A
C55        C1173   1.452       .  S
C56        C1101   1.466       .  S
C57        O2508   1.267       .  A
C57        C1089   1.480       .  S
C58        C1200   1.475       .  S
O59        C2531   1.272       .  A
O59         Co79   2.082       .  S
O60        C2532   1.272       .  A
O60         Co80   1.948       .  S
O61          C69   1.273       .  A
O61         Co81   2.059       .  S
O62        C2534   1.274       .  A
O62       Co1314   2.015   1_545  S
O63          C69   1.255       .  A
O63         Co80   2.000       .  S
O64        C2534   1.265   1_565  A
O64       Co1311   1.955       .  S
O65        C2532   1.285       .  A
O65         Co82   2.065       .  S
O66        C2531   1.220       .  A
O66         Co81   1.910       .  S
C67        O2523   1.272       .  A
C67        O2530   1.220       .  A
C67        C1125   1.493       .  S
C68        O2524   1.272       .  A
C68        O2529   1.285       .  A
C68        C1032   1.496   1_655  S
C69        C3544   1.520       .  S
C70        O2526   1.274   1_455  A
C70        O2528   1.265   1_545  A
C70        C1041   1.455       .  S
O71          C84   1.269       .  A
O71       Co1311   2.027   1_545  S
O72          C85   1.278       .  A
O72         Co80   2.019       .  S
O73          C86   1.295       .  A
O73         Co81   2.118       .  S
O74          C87   1.271       .  A
O74         Co82   1.940       .  S
O75          C87   1.287       .  A
O75         Co80   2.080       .  S
O76          C86   1.236       .  A
O76         Co79   1.903       .  S
O77          C84   1.252   1_565  A
O77       Co1314   1.979       .  S
O78          C85   1.271       .  A
O78         Co81   1.955       .  S
Co79       O1296   1.955       .  S
Co79       O1303   2.027       .  S
Co79         O83   2.092       .  S
Co80         O83   2.027       .  S
Co81         O83   2.042       .  S
Co82       O1294   2.015       .  S
Co82       O1309   1.979       .  S
Co82         O83   2.024       .  S
C84        C1065   1.472       .  S
C85        C1056   1.485       .  S
C86        C1224   1.521       .  S
C87        C1017   1.486       .  S
O88          C96   1.273       .  A
O88        Co108   2.103       .  S
O89          C97   1.269       .  A
O89        Co109   1.934       .  S
O90          C98   1.265       .  A
O90        Co110   2.022       .  S
O91          C99   1.276       .  A
O91        Co111   2.024       .  S
O92          C98   1.255       .  A
O92        Co109   1.989       .  S
O93          C99   1.265       .  A
O93        Co108   1.952       .  S
O94          C97   1.290       .  A
O94        Co111   2.085       .  S
O95          C96   1.221       .  A
O95        Co110   1.912       .  S
C96        C1161   1.512       .  S
C97        C1005   1.492       .  S
C98        C1068   1.492       .  S
C99        C1053   1.464       .  S
O100        C113   1.275       .  A
O100       Co108   2.056       .  S
O101        C114   1.275       .  A
O101       Co109   2.003       .  S
O102        C115   1.283       .  A
O102       Co110   2.102       .  S
O103        C116   1.271       .  A
O103       Co111   1.939       .  S
O104        C116   1.287       .  A
O104       Co109   2.076       .  S
O105        C115   1.232       .  A
O105       Co108   1.897       .  S
O106        C113   1.258       .  A
O106       Co111   2.000       .  S
O107        C114   1.272       .  A
O107       Co110   1.956       .  S
Co108       O112   2.068       .  S
Co109       O112   2.017       .  S
Co110       O112   2.079       .  S
Co111       O112   2.035       .  S
C113       C1077   1.503       .  S
C114       C1044   1.458       .  S
C115       C1113   1.490       .  S
C116        C993   1.495       .  S
O117        C125   1.271       .  A
O117       Co137   1.939       .  S
O118        C126   1.277       .  A
O118       Co138   2.111       .  S
O119        C127   1.284       .  A
O119       Co139   2.028       .  S
O120        C128   1.262       .  A
O120       Co140   2.023       .  S
O121        C127   1.267       .  A
O121       Co138   1.939       .  S
O122        C128   1.252       .  A
O122       Co137   1.995       .  S
O123        C126   1.223       .  A
O123       Co140   1.920       .  S
O124        C125   1.289       .  A
O124       Co139   2.082       .  S
C125       C3460   1.496       .  S
C126       C3445   1.508       .  S
C127       C3397   1.473       .  S
C128       C3433   1.476       .  S
O129        C142   1.279       .  A
O129       Co137   2.020       .  S
O130        C143   1.264       .  A
O130       Co138   2.025       .  S
O131        C144   1.276       .  A
O131       Co139   1.941       .  S
O132        C145   1.280       .  A
O132       Co140   2.109       .  S
O133        C145   1.227       .  A
O133       Co138   1.923       .  S
O134        C144   1.288       .  A
O134       Co137   2.070       .  S
O135        C142   1.267       .  A
O135       Co140   1.945       .  S
O136        C143   1.252       .  A
O136       Co139   1.992       .  S
Co137       O141   2.009       .  S
Co138       O141   2.064       .  S
Co139       O141   2.018       .  S
Co140       O141   2.059       .  S
C142        C945   1.452       .  S
C143        C957   1.479       .  S
C144       C1008   1.493       .  S
C145        C924   1.508       .  S
O146        C154   1.273       .  A
O146       Co166   1.949       .  S
O147        C155   1.276       .  A
O147       Co167   2.110       .  S
O148        C156   1.277       .  A
O148      Co1400   2.014   1_545  S
O149        C157   1.264       .  A
O149       Co169   2.023       .  S
O150        C156   1.267   1_565  A
O150      Co1399   1.955       .  S
O151        C157   1.252       .  A
O151       Co166   1.990       .  S
O152        C155   1.224       .  A
O152       Co169   1.922       .  S
O153        C154   1.285       .  A
O153       Co168   2.064       .  S
C154       C1029   1.488       .  S
C155        C909   1.511       .  S
C156        C936   1.454       .  S
C157        C972   1.494       .  S
O158        C171   1.279       .  A
O158       Co166   2.016       .  S
O159        C172   1.270       .  A
O159      Co1399   2.040   1_545  S
O160        C173   1.272       .  A
O160       Co168   1.939       .  S
O161        C174   1.282       .  A
O161       Co169   2.101       .  S
O162        C174   1.231       .  A
O162       Co167   1.914       .  S
O163        C173   1.286       .  A
O163       Co166   2.077       .  S
O164        C171   1.269       .  A
O164       Co169   1.946       .  S
O165        C172   1.257   1_565  A
O165      Co1400   1.988       .  S
Co166       O170   2.020       .  S
Co167      O1382   1.955       .  S
Co167      O1391   2.040       .  S
Co167       O170   2.068       .  S
Co168      O1380   2.014       .  S
Co168      O1397   1.988       .  S
Co168       O170   2.021       .  S
Co169       O170   2.058       .  S
C171        C948   1.467       .  S
C172        C960   1.502       .  S
C173       C1020   1.481       .  S
C174        C900   1.492       .  S
O175        C183   1.228       .  A
O175       Co195   1.917       .  S
O176        C184   1.291       .  A
O176       Co196   2.073       .  S
O177        C185   1.267       .  A
O177       Co197   1.951       .  S
O178        C186   1.252       .  A
O178       Co198   1.991       .  S
O179        C185   1.275       .  A
O179       Co196   2.010       .  S
O180        C186   1.263       .  A
O180       Co195   2.028       .  S
O181        C184   1.276       .  A
O181       Co198   1.941       .  S
O182        C183   1.284       .  A
O182       Co197   2.114       .  S
C183        C984   1.509   1_455  S
C184       C3304   1.492   1_455  S
C185       C3313   1.452   1_455  S
C186       C3340   1.482   1_455  S
O187        C200   1.267       .  A
O187       Co195   1.931       .  S
O188        C201   1.252       .  A
O188       Co196   1.995       .  S
O189        C202   1.225       .  A
O189       Co197   1.923       .  S
O190        C203   1.289       .  A
O190       Co198   2.080       .  S
O191        C203   1.268       .  A
O191       Co196   1.935       .  S
O192        C202   1.275       .  A
O192       Co195   2.103       .  S
O193        C200   1.284       .  A
O193       Co198   2.031       .  S
O194        C201   1.266       .  A
O194       Co197   2.033       .  S
Co195       O199   2.059       .  S
Co196       O199   2.007       .  S
Co197       O199   2.056       .  S
Co198       O199   2.019       .  S
C200        C861   1.474       .  S
C201        C888   1.489       .  S
C202        C912   1.508       .  S
C203        C825   1.492       .  S
O204        C212   1.222       .  A
O204       Co224   1.920       .  S
O205        C213   1.287       .  A
O205       Co225   2.081       .  S
O206       C1446   1.268   1_545  A
O206       Co226   1.939       .  S
O207        C215   1.256       .  A
O207       Co227   2.008       .  S
O208       C1446   1.279       .  A
O208       Co225   2.018   1_565  S
O209        C215   1.262       .  A
O209       Co224   2.017       .  S
O210        C213   1.271       .  A
O210       Co227   1.944       .  S
O211        C212   1.275       .  A
O211       Co226   2.110       .  S
C212        C921   1.508       .  S
C213        C801   1.486       .  S
C214       O1438   1.268       .  A
C214       O1440   1.279       .  A
C214        C852   1.467       .  S
C215        C873   1.495       .  S
O216        C229   1.268       .  A
O216       Co224   1.942       .  S
O217       C1462   1.253   1_545  A
O217       Co225   1.995       .  S
O218        C231   1.228       .  A
O218       Co226   1.915       .  S
O219        C232   1.288       .  A
O219       Co227   2.075       .  S
O220        C232   1.275       .  A
O220       Co225   1.939       .  S
O221        C231   1.282       .  A
O221       Co224   2.108       .  S
O222        C229   1.278       .  A
O222       Co227   2.018       .  S
O223       C1462   1.266       .  A
O223       Co226   2.033   1_565  S
Co224       O228   2.047       .  S
Co225       O228   2.012       .  S
Co226       O228   2.070       .  S
Co227       O228   2.023       .  S
C229        C864   1.462       .  S
C230       O1449   1.253       .  A
C230       O1455   1.266       .  A
C230        C885   1.495       .  S
C231        C897   1.494       .  S
C232        C813   1.498       .  S
O233        C241   1.269       .  A
O233       Co253   2.052       .  S
O234        C242   1.234       .  A
O234       Co254   1.932       .  S
O235        C243   1.249       .  A
O235       Co255   1.953       .  S
O236        C244   1.243       .  A
O236       Co256   1.933       .  S
O237        C243   1.260       .  A
O237       Co254   2.022       .  S
O238        C244   1.257       .  A
O238       Co253   2.000       .  S
O239        C242   1.271       .  A
O239       Co256   2.077       .  S
O240        C241   1.248       .  A
O240       Co255   1.935       .  S
C241       C1152   1.480       .  S
C242        C789   1.480       .  S
C243        C780   1.474       .  S
C244       C1985   1.461   1_545  S
O245        C258   1.260   1_545  A
O245       Co253   1.887       .  S
O246        C259   1.252       .  A
O246       Co254   1.919       .  S
O247        C260   1.269   1_455  A
O247       Co255   2.034       .  S
O248        C261   1.222       .  A
O248       Co256   1.906       .  S
O249        C261   1.255       .  A
O249       Co254   2.060       .  S
O250        C260   1.255       .  A
O250       Co253   1.963   1_655  S
O251        C258   1.289   1_545  A
O251       Co256   2.092       .  S
O252        C259   1.273       .  A
O252       Co255   2.020       .  S
Co253       O257   2.016       .  S
Co254       O257   2.118       .  S
Co255       O257   2.073       .  S
Co256       O257   2.118       .  S
C258       C4464   1.478   1_455  S
C259       C3208   1.440   1_455  S
C260       C3601   1.493       .  S
C261        C729   1.484       .  S
O262        C270   1.255       .  A
O262       Co282   1.966       .  S
O263        C271   1.260       .  A
O263       Co283   1.888       .  S
O264        C272   1.245       .  A
O264       Co284   1.919       .  S
O265        C273   1.262       .  A
O265       Co285   1.959       .  S
O266        C272   1.280       .  A
O266       Co283   2.101       .  S
O267        C273   1.258       .  A
O267       Co282   1.979       .  S
O268        C271   1.311       .  A
O268       Co285   2.128       .  S
O269        C270   1.261       .  A
O269       Co284   1.987       .  S
C270       C1092   1.469       .  S
C271        C717   1.481       .  S
C272        C765   1.490       .  S
C273        C741   1.458       .  S
O274        C287   1.244       .  A
O274       Co282   1.938       .  S
O275        C288   1.255       .  A
O275       Co283   1.953       .  S
O276        C289   1.258       .  A
O276       Co284   1.965       .  S
O277        C290   1.267       .  A
O277       Co285   1.889       .  S
O278        C290   1.315       .  A
O278       Co283   2.134       .  S
O279        C289   1.258       .  A
O279       Co282   1.971       .  S
O280        C287   1.267       .  A
O280       Co285   2.085       .  S
O281        C288   1.260       .  A
O281       Co284   1.995       .  S
Co282       O286   2.054       .  S
Co283       O286   2.031       .  S
Co284       O286   2.080       .  S
Co285       O286   2.060       .  S
C287        C777   1.464       .  S
C288        C756   1.447       .  S
C289       C1104   1.460       .  S
C290        C705   1.485       .  S
O291        C299   1.273       .  A
O291      Co1543   2.082       .  S
O292        C300   1.275       .  A
O292       Co312   1.938       .  S
O293        C301   1.263       .  A
O293       Co313   2.021       .  S
O294        C302   1.276       .  A
O294       Co314   2.016   1_545  S
O295        C301   1.253       .  A
O295       Co312   2.002       .  S
O296        C302   1.264       .  A
O296       Co311   1.942       .  S
O297        C300   1.287       .  A
O297      Co1546   2.068       .  S
O298        C299   1.239       .  A
O298       Co313   1.932       .  S
C299        C720   1.501       .  S
C300        C633   1.501       .  S
C301        C696   1.499       .  S
C302        C669   1.464       .  S
O303        C316   1.266       .  A
O303       Co311   2.030       .  S
O304        C317   1.281       .  A
O304       Co312   2.027       .  S
O305        C318   1.272       .  A
O305       Co313   2.075       .  S
O306        C319   1.270       .  A
O306      Co1546   1.940       .  S
O307        C319   1.287       .  A
O307       Co312   2.082       .  S
O308       C1550   1.230       .  A
O308       Co311   1.910   1_565  S
O309        C316   1.251       .  A
O309       Co314   1.994   1_545  S
O310        C317   1.268       .  A
O310       Co313   1.945       .  S
Co311      O1523   2.082   1_545  S
Co311      O1547   2.061   1_545  S
Co312       O315   2.019       .  S
Co313       O315   2.068       .  S
Co314      O1529   2.068       .  S
Co314      O1538   1.940       .  S
Co314      O1547   2.020       .  S
O315      Co1543   2.061       .  S
O315      Co1546   2.020       .  S
C316       C3145   1.485       .  S
C317       C3124   1.478       .  S
C318       O1540   1.230       .  A
C318       C1964   1.482       .  S
C319       C3112   1.482       .  S
O320        C328   1.275       .  A
O320       Co340   2.080       .  S
O321        C329   1.274       .  A
O321       Co341   1.955       .  S
O322        C330   1.263       .  A
O322       Co342   2.026       .  S
O323        C331   1.274       .  A
O323       Co343   2.005       .  S
O324        C330   1.253       .  A
O324       Co341   1.998       .  S
O325        C331   1.268       .  A
O325       Co340   1.961       .  S
O326        C329   1.281       .  A
O326       Co343   2.053       .  S
O327        C328   1.236       .  A
O327       Co342   1.924       .  S
C328        C708   1.499       .  S
C329        C621   1.490       .  S
C330        C693   1.483       .  S
C331        C672   1.451       .  S
O332        C345   1.267       .  A
O332       Co340   2.024       .  S
O333        C346   1.280       .  A
O333       Co341   2.031       .  S
O334        C347   1.276       .  A
O334       Co342   2.064       .  S
O335        C348   1.272       .  A
O335       Co343   1.936       .  S
O336        C348   1.286       .  A
O336       Co341   2.075       .  S
O337        C347   1.240       .  A
O337       Co340   1.931       .  S
O338        C345   1.253       .  A
O338       Co343   1.986       .  S
O339        C346   1.264       .  A
O339       Co342   1.944       .  S
Co340       O344   2.071       .  S
Co341       O344   2.032       .  S
Co342       O344   2.053       .  S
Co343       O344   2.022       .  S
C345        C684   1.482       .  S
C346        C657   1.470       .  S
C347        C792   1.479       .  S
C348        C609   1.480       .  S
O349        C357   1.274       .  A
O349       Co369   1.937       .  S
O350        C358   1.280       .  A
O350       Co370   2.106       .  S
O351        C359   1.279       .  A
O351       Co371   2.024       .  S
O352        C360   1.262       .  A
O352       Co372   2.022       .  S
O353        C359   1.266       .  A
O353       Co370   1.940       .  S
O354        C360   1.253       .  A
O354       Co369   1.991       .  S
O355        C358   1.227       .  A
O355       Co372   1.916       .  S
O356        C357   1.290       .  A
O356       Co371   2.075       .  S
C357        C624   1.490       .  S
C358        C537   1.493       .  S
C359        C564   1.481       .  S
C360        C576   1.491       .  S
O361        C374   1.280       .  A
O361       Co369   2.018       .  S
O362        C375   1.267       .  A
O362       Co370   2.032       .  S
O363        C376   1.272       .  A
O363       Co371   1.943       .  S
O364        C377   1.272       .  A
O364       Co372   2.102       .  S
O365        C377   1.224       .  A
O365       Co370   1.912       .  S
O366        C376   1.285       .  A
O366       Co369   2.071       .  S
O367        C374   1.269       .  A
O367       Co372   1.941       .  S
O368        C375   1.252       .  A
O368       Co371   1.998       .  S
Co369       O373   2.009       .  S
Co370       O373   2.050       .  S
Co371       O373   2.022       .  S
Co372       O373   2.070       .  S
C374       C3016   1.468       .  S
C375       C3049   1.491       .  S
C376       C3076   1.480       .  S
C377        C600   1.506       .  S
O378        C386   1.289       .  A
O378       Co398   2.080       .  S
O379        C387   1.236       .  A
O379       Co399   1.924       .  S
O380        C388   1.254       .  A
O380      Co1632   1.987       .  S
O381        C389   1.268       .  A
O381       Co401   1.943       .  S
O382        C388   1.268       .  A
O382      Co1631   2.039       .  S
O383        C389   1.280       .  A
O383       Co398   2.027       .  S
O384        C387   1.284       .  A
O384       Co401   2.106       .  S
O385        C386   1.269       .  A
O385       Co400   1.938       .  S
C386        C816   1.480       .  S
C387        C480   1.501       .  S
C388        C513   1.490       .  S
C389        C501   1.466       .  S
O390        C403   1.252       .  A
O390       Co398   2.006       .  S
O391        C404   1.263       .  A
O391      Co1631   1.946   1_655  S
O392        C405   1.288       .  A
O392       Co400   2.084       .  S
O393        C406   1.226       .  A
O393       Co401   1.920       .  S
O394        C406   1.278       .  A
O394       Co399   2.100       .  S
O395        C405   1.272       .  A
O395       Co398   1.944       .  S
O396        C403   1.265       .  A
O396       Co401   2.034       .  S
O397        C404   1.272   1_455  A
O397      Co1632   1.998       .  S
Co398       O402   2.032       .  S
Co399      O1614   2.039   1_545  S
Co399      O1623   1.946   1_455  S
Co399       O402   2.076       .  S
Co400      O1612   1.987       .  S
Co400      O1629   1.998       .  S
Co400       O402   2.015       .  S
Co401       O402   2.044       .  S
C403       C2992   1.496   1_455  S
C404       C2956   1.442       .  S
C405       C3268   1.486   1_455  S
C406        C597   1.505   1_455  S
O407        C415   1.270       .  A
O407       Co427   1.951       .  S
O408        C416   1.277       .  A
O408       Co428   2.115       .  S
O409        C417   1.279       .  A
O409      Co1661   2.018   1_545  S
O410        C418   1.262       .  A
O410       Co430   2.028       .  S
O411        C417   1.268       .  A
O411      Co1660   1.952   1_545  S
O412        C418   1.250       .  A
O412       Co427   1.990       .  S
O413        C416   1.222       .  A
O413       Co430   1.920       .  S
O414        C415   1.285       .  A
O414       Co429   2.074       .  S
C415        C636   1.489       .  S
C416        C465   1.516       .  S
C417        C561   1.461       .  S
C418        C573   1.476       .  S
O419        C432   1.278       .  A
O419       Co427   2.017       .  S
O420        C433   1.271       .  A
O420      Co1660   2.034   1_545  S
O421        C434   1.275       .  A
O421       Co429   1.942       .  S
O422        C435   1.287       .  A
O422       Co430   2.107       .  S
O423        C435   1.238       .  A
O423       Co428   1.924       .  S
O424        C434   1.284       .  A
O424       Co427   2.065       .  S
O425        C432   1.268       .  A
O425       Co430   1.947       .  S
O426        C433   1.256       .  A
O426      Co1661   1.988   1_545  S
Co427       O431   2.017       .  S
Co428      O1643   1.952       .  S
Co428      O1652   2.034       .  S
Co428       O431   2.072       .  S
Co429      O1641   2.018       .  S
Co429      O1658   1.988       .  S
Co429       O431   2.040       .  S
Co430       O431   2.054       .  S
C432        C549   1.451       .  S
C433        C588   1.493       .  S
C434        C645   1.484       .  S
C435        C477   1.501       .  S
O436        C444   1.288       .  A
O436       Co456   2.071       .  S
O437        C445   1.225       .  A
O437       Co457   1.922       .  S
O438        C446   1.255       .  A
O438       Co458   1.998       .  S
O439        C447   1.261       .  A
O439       Co459   1.930       .  S
O440        C446   1.265       .  A
O440       Co457   2.025       .  S
O441        C447   1.285       .  A
O441       Co456   2.045       .  S
O442        C445   1.280       .  A
O442       Co459   2.121       .  S
O443        C444   1.271       .  A
O443       Co458   1.935       .  S
C444        C828   1.483       .  S
C445        C468   1.515       .  S
C446        C516   1.492       .  S
C447        C504   1.478       .  S
O448        C461   1.251       .  A
O448       Co456   1.991       .  S
O449        C462   1.266       .  A
O449       Co457   1.929       .  S
O450        C463   1.291       .  A
O450       Co458   2.081       .  S
O451        C464   1.226       .  A
O451       Co459   1.915       .  S
O452        C464   1.281       .  A
O452       Co457   2.108       .  S
O453        C463   1.275       .  A
O453       Co456   1.942       .  S
O454        C461   1.267       .  A
O454       Co459   2.045       .  S
O455        C462   1.278       .  A
O455       Co458   2.017       .  S
Co456       O460   2.022       .  S
Co457       O460   2.054       .  S
Co458       O460   2.014       .  S
Co459       O460   2.053       .  S
C461        C525   1.500       .  S
C462        C489   1.469       .  S
C463        C837   1.501       .  S
C464        C540   1.494       .  S
C465        C466   1.428       .  A
C465        C470   1.402       .  A
C466        C467   1.412       .  A
C466        H471   1.084       .  S
C467        C468   1.404       .  A
C467        C474   1.443       .  S
C468        C469   1.428       .  A
C469        C470   1.411       .  A
C469        H472   1.084       .  S
C470        C473   1.442       .  S
C473        N475   1.157       .  T
C474        N476   1.157       .  T
C477        C478   1.403       .  A
C477       C1714   1.421       .  A
C478        C479   1.412       .  A
C478        H483   1.081       .  S
C479       C1712   1.418       .  A
C479        C486   1.441       .  S
C480        C481   1.406       .  A
C480       C1711   1.418       .  A
C481        C482   1.416       .  A
C481        H484   1.082       .  S
C482       C1709   1.421   1_545  A
C482        C485   1.444       .  S
C485        N487   1.157       .  T
C486        N488   1.156       .  T
C489        C490   1.405       .  A
C489        C494   1.418       .  A
C490        C491   1.382       .  A
C490        H495   1.085       .  S
C491        C492   1.402       .  A
C491        C498   1.447       .  S
C492       C2868   1.442       .  S
C492        C493   1.396       .  A
C493        C494   1.397       .  A
C493        H496   1.085       .  S
C494        C497   1.445       .  S
C497        N499   1.158       .  T
C498       N2964   1.158       .  T
N500       C2962   1.158   1_455  T
C501        C502   1.396       .  A
C501        C506   1.409       .  A
C502        C503   1.383       .  A
C502        H507   1.086       .  S
C503        C504   1.421       .  A
C503        C510   1.448       .  S
C504        C505   1.407       .  A
C505        C506   1.405       .  A
C505        H508   1.083       .  S
C506        C509   1.442       .  S
C509        N511   1.157       .  T
C510        N512   1.158       .  T
C513        C514   1.407       .  A
C513        C518   1.412       .  A
C514        C515   1.404       .  A
C514       H1751   1.085       .  S
C515        C516   1.412       .  A
C515        C522   1.444       .  S
C516        C517   1.409       .  A
C517        C518   1.408       .  A
C517        H520   1.084       .  S
C518        C521   1.443       .  S
H519       C1746   1.085   1_545  S
C521        N523   1.157       .  T
C522        N524   1.157       .  T
C525        C526   1.411       .  A
C525        C530   1.414       .  A
C526        C527   1.408       .  A
C526        H531   1.084       .  S
C527        C528   1.411       .  A
C527       C2998   1.444       .  S
C528       C2867   1.496       .  S
C528        C529   1.409       .  A
C529        C530   1.409       .  A
C529        H532   1.085       .  S
C530        C533   1.444       .  S
C533        N535   1.157       .  T
C534       C2991   1.444   1_455  S
C534        N536   1.157       .  T
C537        C538   1.389       .  A
C537        C542   1.434       .  A
C538        C539   1.404       .  A
C538        H543   1.085       .  S
C539        C540   1.434       .  A
C539        C546   1.443       .  S
C540        C541   1.390       .  A
C541        C542   1.404       .  A
C541        H544   1.085       .  S
C542        C545   1.444       .  S
C545        N547   1.157       .  T
C546        N548   1.157       .  T
C549        C550   1.397       .  A
C549        C554   1.407       .  A
C550        C551   1.397       .  A
C550        H555   1.085       .  S
C551        C552   1.416       .  A
C551       C3022   1.443   1_455  S
C552       C2838   1.468       .  S
C552        C553   1.402       .  A
C553        C554   1.388       .  A
C553        H556   1.085       .  S
C554        C557   1.445       .  S
C557        N559   1.157       .  T
C558       C3015   1.443       .  S
C558        N560   1.157       .  T
C561        C562   1.401       .  A
C561        C566   1.407       .  A
C562        C563   1.404       .  A
C562        H567   1.085       .  S
C563        C564   1.418       .  A
C563        C570   1.443       .  S
C564        C565   1.406       .  A
C565        C566   1.385       .  A
C565        H568   1.084       .  S
C566        C569   1.448       .  S
C569        N571   1.158       .  T
C570        N572   1.157       .  T
C573        C574   1.403       .  A
C573        C578   1.407       .  A
C574        C575   1.403       .  A
C574        H579   1.085       .  S
C575        C576   1.416       .  A
C575        C582   1.444       .  S
C576        C577   1.410       .  A
C577        C578   1.401       .  A
C577        H580   1.084       .  S
C578        C581   1.444       .  S
C581        N583   1.157       .  T
C582        N584   1.157       .  T
C585       C2839   1.491   1_455  S
C585        C586   1.402       .  A
C585        C590   1.418       .  A
C586        C587   1.405       .  A
C586        H591   1.085       .  S
C587        C588   1.416       .  A
C587        C594   1.439       .  S
C588        C589   1.400       .  A
C589        C590   1.404       .  A
C589        H592   1.085       .  S
C590        C593   1.437       .  S
C593        N595   1.156       .  T
C594        N596   1.156       .  T
C597        C602   1.401       .  A
C597       C3062   1.427   1_655  A
C598        C599   1.407       .  A
C598       C3061   1.427       .  A
C598        H603   1.084       .  S
C599        C600   1.401       .  A
C599        C606   1.443       .  S
C600       C3065   1.426       .  A
C601        C602   1.406       .  A
C601       C3064   1.426       .  A
C601        H604   1.084       .  S
C602        C605   1.443       .  S
C605        N607   1.157       .  T
C606        N608   1.157       .  T
C609        C610   1.399       .  A
C609        C614   1.416       .  A
C610        C611   1.401       .  A
C610        H615   1.085       .  S
C611        C612   1.417       .  A
C611        C618   1.444       .  S
C612       C2840   1.480   1_455  S
C612        C613   1.401       .  A
C613        C614   1.404       .  A
C613       H3080   1.085   1_455  S
C614        C617   1.444       .  S
H616       C3077   1.085       .  S
C617        N619   1.157       .  T
C618        N620   1.157       .  T
C621        C622   1.405       .  A
C621        C626   1.418       .  A
C622        C623   1.410       .  A
C622        H627   1.084       .  S
C623        C624   1.415       .  A
C623        C630   1.437       .  S
C624        C625   1.401       .  A
C625        C626   1.398       .  A
C625        H628   1.084       .  S
C626        C629   1.446       .  S
C629        N631   1.157       .  T
C630        N632   1.155       .  T
C633        C634   1.408       .  A
C633        C638   1.415       .  A
C634        C635   1.400       .  A
C634       H1871   1.085       .  S
C635        C636   1.411       .  A
C635       C1874   1.445       .  S
C636        C637   1.409       .  A
C637        C638   1.414       .  A
C637        H640   1.084       .  S
C638        C641   1.441       .  S
H639       C1866   1.085       .  S
C641        N643   1.157       .  T
C642       C1867   1.445       .  S
C642        N644   1.157   1_565  T
C645        C646   1.401       .  A
C645        C650   1.417       .  A
C646        C647   1.405       .  A
C646        H651   1.085       .  S
C647        C648   1.416       .  A
C647        C654   1.443       .  S
C648       C2783   1.482   1_455  S
C648        C649   1.400       .  A
C649        C650   1.403       .  A
C649       H3116   1.085   1_455  S
C650        C653   1.445       .  S
H652       C3113   1.085       .  S
C653        N655   1.157       .  T
C654        N656   1.157       .  T
C657        C658   1.404       .  A
C657        C662   1.412       .  A
C658        C659   1.405       .  A
C658        H663   1.084       .  S
C659        C660   1.415       .  A
C659        C666   1.444       .  S
C660       C2781   1.478   1_455  S
C660        C661   1.403       .  A
C661        C662   1.387       .  A
C661        H664   1.085       .  S
C662        C665   1.448       .  S
C665        N667   1.158       .  T
C666        N668   1.157       .  T
C669        C670   1.405       .  A
C669        C674   1.413       .  A
C670        C671   1.398       .  A
C670        H675   1.085       .  S
C671        C672   1.405       .  A
C671        C678   1.443       .  S
C672        C673   1.396       .  A
C673        C674   1.389       .  A
C673        H676   1.086       .  S
C674        C677   1.445       .  S
C677        N679   1.157   1_545  T
C678        N680   1.157       .  T
C681       C2780   1.485   1_455  S
C681        C682   1.404       .  A
C681        C686   1.415       .  A
C682        C683   1.405       .  A
C682        H687   1.085       .  S
C683        C684   1.413       .  A
C683        C690   1.440       .  S
C684        C685   1.396       .  A
C685        C686   1.400       .  A
C685        H688   1.085       .  S
C686        C689   1.435       .  S
C689        N691   1.155       .  T
C690        N692   1.156       .  T
C693        C694   1.399       .  A
C693        C698   1.411       .  A
C694        C695   1.404       .  A
C694        H699   1.085       .  S
C695        C696   1.421       .  A
C695        C702   1.441       .  S
C696        C697   1.408       .  A
C697        C698   1.406       .  A
C697        H700   1.085       .  S
C698        C701   1.444       .  S
C701        N703   1.157       .  T
C702        N704   1.156       .  T
C705        C706   1.416       .  A
C705        C710   1.400       .  A
C706        C707   1.410       .  A
C706        H711   1.085       .  S
C707        C708   1.406       .  A
C707        C714   1.442       .  S
C708        C709   1.420       .  A
C709        C710   1.401       .  A
C709        H712   1.085       .  S
C710        C713   1.444       .  S
C713        N715   1.157       .  T
C714        N716   1.157       .  T
C717        C718   1.414       .  A
C717        C722   1.403       .  A
C718        C719   1.410       .  A
C718        H723   1.084       .  S
C719        C720   1.410       .  A
C719        C726   1.442       .  S
C720        C721   1.418       .  A
C721        C722   1.399       .  A
C721        H724   1.084       .  S
C722        C725   1.444       .  S
C725        N727   1.157       .  T
C726        N728   1.157       .  T
C729        C730   1.390   1_455  A
C729       C3198   1.429       .  A
C730       C3195   1.399       .  A
C730        H735   1.085       .  S
C731        C732   1.430       .  A
C731       C3194   1.399       .  A
C731       C3202   1.444       .  S
C732       C1550   1.482   1_545  S
C732        C733   1.387   1_545  A
C733        C734   1.399   1_565  A
C733       H1968   1.085       .  S
C734       C3193   1.429       .  A
C734        C737   1.439       .  S
H736       C1965   1.085       .  S
C737        N739   1.157   1_545  T
C738       C3195   1.444       .  S
C738        N740   1.157       .  T
C741        C742   1.398       .  A
C741        C746   1.421       .  A
C742        C743   1.386       .  A
C742        H747   1.085       .  S
C743        C744   1.410       .  A
C743        C750   1.447       .  S
C744       C2723   1.440       .  S
C744        C745   1.390       .  A
C745        C746   1.390       .  A
C745        H748   1.086       .  S
C746        C749   1.446       .  S
C749        N751   1.157       .  T
C750        N752   1.157       .  T
C753       C1476   1.461       .  S
C753        C754   1.404       .  A
C753        C758   1.411       .  A
C754        C755   1.387       .  A
C754        H759   1.085       .  S
C755        C756   1.402       .  A
C755        C762   1.444       .  S
C756        C757   1.400       .  A
C757        C758   1.396       .  A
C757        H760   1.085       .  S
C758       C1993   1.444       .  S
C761       C1990   1.444   1_545  S
C761        N763   1.157       .  T
C762        N764   1.157       .  T
C765        C766   1.396       .  A
C765        C770   1.424       .  A
C766        C767   1.399       .  A
C766        H771   1.083       .  S
C767        C768   1.420       .  A
C767        C774   1.440       .  S
C768       C3954   1.478       .  S
C768        C769   1.394       .  A
C769        C770   1.399       .  A
C769        H772   1.086       .  S
C770        C773   1.438       .  S
C773        N775   1.155       .  T
C774       N2008   1.156       .  T
N776       C2006   1.156       .  T
C777        C778   1.405       .  A
C777        C782   1.405       .  A
C778        C779   1.402       .  A
C778        H783   1.085       .  S
C779        C780   1.410       .  A
C779        C786   1.444       .  S
C780        C781   1.405       .  A
C781        C782   1.394       .  A
C781        H784   1.085       .  S
C782        C785   1.445       .  S
C785        N787   1.157       .  T
C786        N788   1.157       .  T
C789        C790   1.405       .  A
C789        C794   1.413       .  A
C790        C791   1.406       .  A
C790        H795   1.084       .  S
C791        C792   1.415       .  A
C791        C798   1.444       .  S
C792        C793   1.403       .  A
C793        C794   1.402       .  A
C793        H796   1.082       .  S
C794        C797   1.443       .  S
C797        N799   1.157       .  T
C798        N800   1.157       .  T
C801        C802   1.407       .  A
C801        C806   1.409       .  A
C802        C803   1.405       .  A
C802        H807   1.084       .  S
C803        C804   1.409       .  A
C803       C3274   1.443       .  S
C804       C2869   1.486       .  S
C804        C805   1.408       .  A
C805        C806   1.407       .  A
C805        H808   1.085       .  S
C806        C809   1.443       .  S
C809        N811   1.157       .  T
C810       C3267   1.443   1_455  S
C810        N812   1.157       .  T
C813        C814   1.407       .  A
C813        C818   1.421       .  A
C814        C815   1.408       .  A
C814        H819   1.084   1_545  S
C815        C816   1.411       .  A
C815        C822   1.437   1_545  S
C816        C817   1.393       .  A
C817        C818   1.397       .  A
C817        H820   1.085       .  S
C818        C821   1.438       .  S
C821        N823   1.155       .  T
C822        N824   1.156       .  T
C825        C826   1.403       .  A
C825        C830   1.417       .  A
C826        C827   1.395       .  A
C826        H831   1.081       .  S
C827        C828   1.411       .  A
C827        C834   1.445       .  S
C828        C829   1.406       .  A
C829        C830   1.410       .  A
C829        H832   1.084       .  S
C830        C833   1.443       .  S
C833        N835   1.157       .  T
C834        N836   1.157       .  T
C837        C838   1.411       .  A
C837        C842   1.417       .  A
C838        C839   1.415       .  A
C838        H843   1.084       .  S
C839        C840   1.416       .  A
C839        C846   1.443       .  S
C840       C2648   1.492       .  S
C840        C841   1.401       .  A
C841        C842   1.398       .  A
C841        H844   1.086       .  S
C842        C845   1.440       .  S
C845        N847   1.155       .  T
C846        N848   1.157       .  T
C849       C2649   1.452       .  S
C849        C850   1.399       .  A
C849        C854   1.406       .  A
C850        C851   1.399       .  A
C850        H855   1.085       .  S
C851        C852   1.416       .  A
C851        C858   1.445       .  S
C852        C853   1.402       .  A
C853        C854   1.387       .  A
C853        H856   1.085       .  S
C854       C3321   1.445       .  S
C857       C3318   1.445   1_455  S
C857        N859   1.157       .  T
C858        N860   1.157       .  T
C861        C862   1.407       .  A
C861        C866   1.414       .  A
C862        C863   1.384       .  A
C862        H867   1.085       .  S
C863        C864   1.407       .  A
C863        C870   1.448       .  S
C864        C865   1.402       .  A
C865        C866   1.399       .  A
C865        H868   1.085       .  S
C866        C869   1.443       .  S
C869        N871   1.157       .  T
C870        N872   1.158       .  T
C873        C874   1.410       .  A
C873        C878   1.417       .  A
C874        C875   1.406       .  A
C874        H879   1.083       .  S
C875        C876   1.408       .  A
C875        C882   1.444       .  S
C876       C2650   1.482       .  S
C876        C877   1.403       .  A
C877        C878   1.403       .  A
C877        H880   1.085       .  S
C878        C881   1.444       .  S
C881        N883   1.157       .  T
C882       N3348   1.157       .  T
N884       C3346   1.157       .  T
C885        C886   1.405       .  A
C885        C890   1.419       .  A
C886        C887   1.407       .  A
C886        H891   1.085       .  S
C887        C888   1.416       .  A
C887        C894   1.444       .  S
C888        C889   1.400       .  A
C889        C890   1.403       .  A
C889        H892   1.084       .  S
C890       C2125   1.442       .  S
C893       C2122   1.442   1_545  S
C893        N895   1.156       .  T
C894        N896   1.157       .  T
C897        C898   1.393   1_556  A
C897        C902   1.433   1_545  A
C898       C2131   1.406       .  A
C898        H903   1.085       .  S
C899        C900   1.430       .  A
C899       C2130   1.406       .  A
C899        C906   1.445       .  S
C900        C901   1.391       .  A
C901       C2134   1.406   1_554  A
C901        H904   1.085       .  S
C902       C2133   1.406   1_556  A
C902        C905   1.445       .  S
C905        N907   1.158       .  T
C906        N908   1.158       .  T
C909        C910   1.427       .  A
C909        C914   1.405       .  A
C910        C911   1.409       .  A
C910        H915   1.084       .  S
C911        C912   1.404   1_554  A
C911        C918   1.443       .  S
C912        C913   1.424       .  A
C913        C914   1.407   1_556  A
C913        H916   1.084       .  S
C914        C917   1.441       .  S
C917        N919   1.157       .  T
C918        N920   1.157       .  T
C921        C922   1.427       .  A
C921        C926   1.403   1_556  A
C922        C923   1.408   1_556  A
C922        H927   1.084       .  S
C923        C924   1.403       .  A
C923        C930   1.443       .  S
C924        C925   1.426       .  A
C925        C926   1.407       .  A
C925        H928   1.084       .  S
C926        C929   1.443       .  S
C929        N931   1.157       .  T
C930        N932   1.157   1_554  T
C933       C2591   1.473   1_455  S
C933        C934   1.405       .  A
C933        C938   1.417       .  A
C934        C935   1.398       .  A
C934       H3403   1.085   1_455  S
C935        C936   1.404       .  A
C935       C2174   1.439   1_545  S
C936        C937   1.394       .  A
C937        C938   1.389       .  A
C937        H940   1.087       .  S
C938        C941   1.442       .  S
H939       C3398   1.085       .  S
C941        N943   1.156       .  T
C942       C2167   1.439       .  S
C942        N944   1.156       .  T
C945        C946   1.397       .  A
C945        C950   1.407       .  A
C946        C947   1.397       .  A
C946        H951   1.085       .  S
C947        C948   1.416       .  A
C947        C954   1.445       .  S
C948        C949   1.402       .  A
C949        C950   1.391       .  A
C949        H952   1.085       .  S
C950        C953   1.446       .  S
C953        N955   1.157       .  T
C954        N956   1.157       .  T
C957        C958   1.401       .  A
C957        C962   1.406       .  A
C958        C959   1.407       .  A
C958        H963   1.085       .  S
C959        C960   1.418       .  A
C959        C966   1.439       .  S
C960        C961   1.411       .  A
C961        C962   1.404       .  A
C961        H964   1.080       .  S
C962        C965   1.444       .  S
C965        N967   1.157       .  T
C966        N968   1.156       .  T
C969       C2592   1.476   1_455  S
C969        C970   1.397       .  A
C969        C974   1.409       .  A
C970        C971   1.401       .  A
C970        H975   1.085   1_455  S
C971        C972   1.421       .  A
C971        C978   1.440       .  S
C972        C973   1.405       .  A
C973        C974   1.402       .  A
C973        H976   1.085       .  S
C974        C977   1.439       .  S
C977        N979   1.155       .  T
C978        N980   1.156       .  T
C981       C2590   1.508       .  S
C981        C982   1.427   1_655  A
C981       C3450   1.403       .  A
C982        C983   1.408       .  A
C982        H987   1.084       .  S
C983        C984   1.403   1_454  A
C983        C990   1.443       .  S
C984       C3449   1.427       .  A
C985        C986   1.408   1_556  A
C985       C3448   1.427       .  A
C985        H988   1.084       .  S
C986       C3445   1.403       .  A
C986        C989   1.443       .  S
C989        N991   1.157   1_554  T
C990        N992   1.157       .  T
C993        C994   1.405       .  A
C993        C998   1.413       .  A
C994        C995   1.401       .  A
C994        H999   1.085       .  S
C995        C996   1.417       .  A
C995       C1002   1.445       .  S
C996       C2589   1.496   1_455  S
C996        C997   1.409       .  A
C997        C998   1.411       .  A
C997       H1000   1.084       .  S
C998       C1001   1.441       .  S
C1001      N1003   1.156       .  T
C1002      N1004   1.157       .  T
C1005      C1006   1.403       .  A
C1005      C1010   1.417       .  A
C1006      C1007   1.400       .  A
C1006      H1011   1.085       .  S
C1007      C1008   1.417       .  A
C1007      C1014   1.445       .  S
C1008      C1009   1.407       .  A
C1009      C1010   1.410       .  A
C1009      H1012   1.084       .  S
C1010      C1013   1.444       .  S
C1013      N1015   1.157       .  T
C1014      N1016   1.157       .  T
C1017      C1018   1.408       .  A
C1017      C1022   1.411       .  A
C1018      C1019   1.405       .  A
C1018      H1023   1.085       .  S
C1019      C1020   1.408       .  A
C1019      C1026   1.445       .  S
C1020      C1021   1.406       .  A
C1021      C1022   1.405       .  A
C1021      H1024   1.084       .  S
C1022      C1025   1.444       .  S
C1025      N1027   1.157       .  T
C1026      N1028   1.157       .  T
C1029      C1030   1.407       .  A
C1029      C1034   1.412       .  A
C1030      C1031   1.414       .  A
C1030      H1035   1.084       .  S
C1031      C1032   1.416       .  A
C1031      C1038   1.442       .  S
C1032      C1033   1.406       .  A
C1033      C1034   1.396       .  A
C1033      H1036   1.085       .  S
C1034      C1037   1.446       .  S
C1037      N2271   1.157       .  T
C1038      N1040   1.157       .  T
N1039      C2269   1.157   1_545  T
C1041      C1042   1.397       .  A
C1041      C1046   1.413       .  A
C1042      C1043   1.395       .  A
C1042      H2279   1.085       .  S
C1043      C1044   1.414       .  A
C1043      C1050   1.446       .  S
C1044      C1045   1.394       .  A
C1045      C1046   1.391       .  A
C1045      H1048   1.085       .  S
C1046      C3513   1.442   1_455  S
H1047      C2274   1.085       .  S
C1049      C3510   1.442       .  S
C1049      N1051   1.157       .  T
C1050      N1052   1.157       .  T
C1053      C1054   1.399       .  A
C1053      C1058   1.408       .  A
C1054      C1055   1.405       .  A
C1054      H1059   1.085       .  S
C1055      C1056   1.421       .  A
C1055      C1062   1.444       .  S
C1056      C1057   1.404       .  A
C1057      C1058   1.389       .  A
C1057      H1060   1.084       .  S
C1058      C1061   1.445       .  S
C1061      N1063   1.157       .  T
C1062      N1064   1.157       .  T
C1065      C1066   1.399       .  A
C1065      C1070   1.406       .  A
C1066      C1067   1.402       .  A
C1066      H1071   1.084       .  S
C1067      C1068   1.418       .  A
C1067      C1074   1.443       .  S
C1068      C1069   1.410       .  A
C1069      C1070   1.402       .  A
C1069      H1072   1.084       .  S
C1070      C1073   1.444       .  S
C1073      N1075   1.157       .  T
C1074      N1076   1.157       .  T
C1077      C1078   1.409       .  A
C1077      C1082   1.410       .  A
C1078      C1079   1.417       .  A
C1078      H1083   1.085       .  S
C1079      C1080   1.420       .  A
C1079      C1086   1.443       .  S
C1080      C2533   1.520   1_455  S
C1080      C1081   1.416       .  A
C1081      C1082   1.411       .  A
C1081      H1084   1.084       .  S
C1082      C1085   1.444       .  S
C1085      N1087   1.157       .  T
C1086      N3552   1.157   1_455  T
N1088      C3550   1.157       .  T
C1089      C1090   1.408       .  A
C1089      C1094   1.415       .  A
C1090      C1091   1.394       .  A
C1090      H1095   1.085       .  S
C1091      C1092   1.408       .  A
C1091      C1098   1.444       .  S
C1092      C1093   1.404       .  A
C1093      C1094   1.395       .  A
C1093      H1096   1.086       .  S
C1094      C1097   1.445       .  S
C1097      N1099   1.158       .  T
C1098      N1100   1.157       .  T
C1101      C1102   1.404       .  A
C1101      C1106   1.411       .  A
C1102      C1103   1.399       .  A
C1102      H1107   1.084       .  S
C1103      C1104   1.409       .  A
C1103      C1110   1.444       .  S
C1104      C1105   1.401       .  A
C1105      C1106   1.392       .  A
C1105      H1108   1.086       .  S
C1106      C1109   1.446       .  S
C1109      N1111   1.157       .  T
C1110      N1112   1.157       .  T
C1113      C1114   1.390       .  A
C1113      C1118   1.436       .  A
C1114      C1115   1.405       .  A
C1114      H1119   1.086       .  S
C1115      C1116   1.434       .  A
C1115      C1122   1.437       .  S
C1116      C1117   1.383       .  A
C1117      C1118   1.395       .  A
C1117      H1120   1.084       .  S
C1118      C1121   1.436       .  S
C1121      N1123   1.158       .  T
C1122      N1124   1.156       .  T
C1125      C1130   1.406   1_655  A
C1125      C3590   1.421       .  A
C1126      C1127   1.397       .  A
C1126      C3589   1.421       .  A
C1126      H1131   1.057       .  S
C1127      C1128   1.391       .  A
C1127      C1134   1.445       .  S
C1128      C3593   1.418       .  A
C1129      C1130   1.398       .  A
C1129      C3592   1.418   1_455  A
C1129      H1132   1.082       .  S
C1130      C1133   1.445       .  S
C1133      N1135   1.157       .  T
C1134      N1136   1.157       .  T
C1137      C2724   1.493       .  S
C1137      C1138   1.409       .  A
C1137      C1142   1.419       .  A
C1138      C1139   1.408       .  A
C1138      H1143   1.084       .  S
C1139      C1140   1.410       .  A
C1139      C1146   1.444       .  S
C1140      C1141   1.401       .  A
C1141      C1142   1.401       .  A
C1141      H1144   1.086       .  S
C1142      C3609   1.445       .  S
C1145      C3606   1.445   1_455  S
C1145      N1147   1.157       .  T
C1146      N1148   1.157       .  T
C1149      C1150   1.414       .  A
C1149      C1154   1.417       .  A
C1150      C1151   1.410       .  A
C1150      H1155   1.084       .  S
C1151      C1152   1.408       .  A
C1151      C1158   1.442   1_545  S
C1152      C1153   1.403       .  A
C1153      C1154   1.390       .  A
C1153      H1156   1.086       .  S
C1154      C1157   1.447       .  S
C1157      N1159   1.158       .  T
C1158      N2392   1.157       .  T
N1160      C2390   1.157       .  T
C1161      C1162   1.429       .  A
C1161      C1166   1.401       .  A
C1162      C1163   1.417       .  A
C1162      H1167   1.083       .  S
C1163      C1164   1.402       .  A
C1163      C1170   1.441       .  S
C1164      C1165   1.424       .  A
C1165      C1166   1.407       .  A
C1165      H1168   1.074       .  S
C1166      C1169   1.442       .  S
C1169      N1171   1.157       .  T
C1170      N1172   1.157       .  T
C1173      C1174   1.396       .  A
C1173      C1178   1.403       .  A
C1174      C1175   1.387       .  A
C1174      H1179   1.087       .  S
C1175      C1176   1.411       .  A
C1175      C1182   1.441       .  S
C1176      C1177   1.406       .  A
C1177      C1178   1.396       .  A
C1177      H1180   1.085       .  S
C1178      C1181   1.440       .  S
C1181      N1183   1.156       .  T
C1182      N1184   1.157       .  T
C1185      C1186   1.401       .  A
C1185      C1190   1.414       .  A
C1186      C1187   1.406       .  A
C1186      H1191   1.085       .  S
C1187      C1188   1.414       .  A
C1187      C2426   1.438       .  S
C1188      C1189   1.392       .  A
C1189      C1190   1.386       .  A
C1189      H1192   1.087       .  S
C1190      C1193   1.433       .  S
C1193      N1195   1.154       .  T
C1194      C2419   1.438   1_545  S
C1194      N1196   1.156       .  T
C1197      C1198   1.388       .  A
C1197      C1202   1.423       .  A
C1198      C1199   1.393       .  A
C1198      H1203   1.086       .  S
C1199      C1200   1.420       .  A
C1199      C1206   1.434       .  S
C1200      C1201   1.395       .  A
C1201      C1202   1.401       .  A
C1201      H1204   1.085       .  S
C1202      C1205   1.442       .  S
C1205      N1207   1.156       .  T
C1206      N1208   1.155       .  T
C1209      C1210   1.417       .  A
C1209      C1214   1.409       .  A
C1210      C1211   1.402       .  A
C1210      H1215   1.084       .  S
C1211      C1212   1.409       .  A
C1211      C1218   1.446       .  S
C1212      C1213   1.412       .  A
C1213      C1214   1.417       .  A
C1213      H1216   1.072       .  S
C1214      C1217   1.441       .  S
C1217      N1219   1.157       .  T
C1218      N3684   1.158       .  T
N1220      C3682   1.158       .  T
C1221      C1222   1.397       .  A
C1221      C1226   1.412       .  A
C1222      C2455   1.408   1_545  A
C1222      H1227   1.087       .  S
C1223      C1224   1.438       .  A
C1223      C2454   1.408       .  A
C1223      C1230   1.437       .  S
C1224      C1225   1.411       .  A
C1225      C2458   1.416       .  A
C1225      H1228   1.083       .  S
C1226      C2457   1.416       .  A
C1226      C1229   1.428       .  S
C1229      N1231   1.153       .  T
C1230      N1232   1.158       .  T
O1233      C1241   1.264       .  A
O1233     Co1253   2.022       .  S
O1234      C1242   1.253       .  A
O1234     Co1254   1.941       .  S
O1235      C1243   1.254       .  A
O1235     Co1255   1.966       .  S
O1236      C1244   1.265       .  A
O1237      C1243   1.263       .  A
O1237     Co1254   1.992       .  S
O1238      C1244   1.297       .  A
O1239      C1242   1.273       .  A
O1239     Co1256   2.035       .  S
O1240      C1241   1.274       .  A
O1240     Co1255   2.019       .  S
C1241      C2453   1.509       .  S
C1242      C2372   1.479       .  S
C1243      C2408   1.461       .  S
C1244      C2441   1.510       .  S
O1245      C1258   1.245   1_545  A
O1246      C1259   1.254       .  A
O1246     Co1254   1.934       .  S
O1247      C1260   1.259       .  A
O1247     Co1255   2.016       .  S
O1248      C1261   1.258       .  A
O1248     Co1256   1.975       .  S
O1249      C1261   1.262       .  A
O1249     Co1254   1.983       .  S
O1250      C1260   1.286       .  A
O1250     Co1253   2.035       .  S
O1251      C1258   1.265       .  A
O1252      C1259   1.284       .  A
O1252     Co1255   2.040       .  S
Co1253     O1257   2.050       .  S
Co1254     O1257   2.048       .  S
Co1255     O1257   2.050       .  S
Co1256     O1257   2.070       .  S
C1258      C2420   1.473       .  S
C1259      C2429   1.474       .  S
C1260      C2396   1.520       .  S
C1261      C2381   1.492       .  S
O1262      C1270   1.260       .  A
O1262     Co1282   1.993       .  S
O1263      C1271   1.280       .  A
O1263     Co1283   1.987       .  S
O1264      C1272   1.269       .  A
O1264     Co1284   2.017       .  S
O1265      C3737   1.272   1_455  A
O1265     Co1285   2.001       .  S
O1266      C1272   1.261       .  A
O1266     Co1283   1.970       .  S
O1267      C1273   1.279       .  A
O1267     Co1282   1.930       .  S
O1268      C1271   1.255       .  A
O1268     Co1285   1.948       .  S
O1269      C3734   1.264       .  A
O1269     Co1284   2.016       .  S
C1270      O3733   1.264       .  A
C1270      C2444   1.504       .  S
C1271      C2348   1.500       .  S
C1272      C2417   1.472       .  S
C1273      O3729   1.272       .  A
C1273      C2360   1.483       .  S
O1274      C1287   1.250       .  A
O1274     Co1282   1.991       .  S
O1275      C1288   1.274       .  A
O1275     Co1283   2.018       .  S
O1276      C3753   1.267   1_455  A
O1276     Co1284   1.964       .  S
O1277      C1290   1.252       .  A
O1277     Co1285   2.011       .  S
O1278      C1290   1.239       .  A
O1278     Co1283   1.958       .  S
O1279      C1289   1.274       .  A
O1279     Co1282   2.008       .  S
O1280      C3751   1.237   1_455  A
O1280     Co1285   1.921       .  S
O1281      C1288   1.262       .  A
O1281     Co1284   1.959       .  S
Co1282     O3750   2.002       .  S
Co1283     O1286   2.015       .  S
Co1284     O1286   2.079       .  S
Co1285     O1286   2.190       .  S
O1286     Co3746   2.002       .  S
C1287      O3744   1.237       .  A
C1287      C2405   1.452       .  S
C1288      C2333   1.466       .  S
C1289      O3740   1.267       .  A
C1289      C2321   1.480       .  S
C1290      C2432   1.475       .  S
O1291      C3763   1.272       .  A
O1291     Co1311   2.082       .  S
O1292      C3764   1.272       .  A
O1292     Co1312   1.948       .  S
O1293      C1301   1.273       .  A
O1293     Co1313   2.059       .  S
O1294      C3766   1.274       .  A
O1295      C1301   1.255       .  A
O1295     Co1312   2.000       .  S
O1296      C3766   1.265       .  A
O1297      C3764   1.285       .  A
O1297     Co1314   2.065       .  S
O1298      C3763   1.220       .  A
O1298     Co1313   1.910       .  S
C1299      O3755   1.272       .  A
C1299      O3762   1.220       .  A
C1299      C2357   1.493       .  S
C1300      O3756   1.272       .  A
C1300      O3761   1.285       .  A
C1300      C2264   1.496   1_655  S
C1301      C4776   1.520       .  S
C1302      O3758   1.274   1_455  A
C1302      O3760   1.265       .  A
C1302      C2273   1.455       .  S
O1303      C1316   1.269       .  A
O1304      C1317   1.278       .  A
O1304     Co1312   2.019       .  S
O1305      C1318   1.295       .  A
O1305     Co1313   2.118       .  S
O1306      C1319   1.271       .  A
O1306     Co1314   1.940       .  S
O1307      C1319   1.287       .  A
O1307     Co1312   2.080       .  S
O1308      C1318   1.236       .  A
O1308     Co1311   1.903       .  S
O1309      C1316   1.252       .  A
O1310      C1317   1.271       .  A
O1310     Co1313   1.955       .  S
Co1311     O1315   2.092       .  S
Co1312     O1315   2.027       .  S
Co1313     O1315   2.042       .  S
Co1314     O1315   2.024       .  S
C1316      C2297   1.472       .  S
C1317      C2288   1.485       .  S
C1318      C2456   1.521       .  S
C1319      C2249   1.486       .  S
O1320      C1328   1.273       .  A
O1320     Co1340   2.103       .  S
O1321      C1329   1.269       .  A
O1321     Co1341   1.934       .  S
O1322      C1330   1.265       .  A
O1322     Co1342   2.022       .  S
O1323      C1331   1.276       .  A
O1323     Co1343   2.024       .  S
O1324      C1330   1.255       .  A
O1324     Co1341   1.989       .  S
O1325      C1331   1.265       .  A
O1325     Co1340   1.952       .  S
O1326      C1329   1.290       .  A
O1326     Co1343   2.085       .  S
O1327      C1328   1.221       .  A
O1327     Co1342   1.912       .  S
C1328      C2393   1.512       .  S
C1329      C2237   1.492       .  S
C1330      C2300   1.492       .  S
C1331      C2285   1.464       .  S
O1332      C1345   1.275       .  A
O1332     Co1340   2.056       .  S
O1333      C1346   1.275       .  A
O1333     Co1341   2.003       .  S
O1334      C1347   1.283       .  A
O1334     Co1342   2.102       .  S
O1335      C1348   1.271       .  A
O1335     Co1343   1.939       .  S
O1336      C1348   1.287       .  A
O1336     Co1341   2.076       .  S
O1337      C1347   1.232       .  A
O1337     Co1340   1.897       .  S
O1338      C1345   1.258       .  A
O1338     Co1343   2.000       .  S
O1339      C1346   1.272       .  A
O1339     Co1342   1.956       .  S
Co1340     O1344   2.068       .  S
Co1341     O1344   2.017       .  S
Co1342     O1344   2.079       .  S
Co1343     O1344   2.035       .  S
C1345      C2309   1.503       .  S
C1346      C2276   1.458       .  S
C1347      C2345   1.490       .  S
C1348      C2225   1.495       .  S
O1349      C1357   1.271       .  A
O1349     Co1369   1.939       .  S
O1350      C1358   1.277       .  A
O1350     Co1370   2.111       .  S
O1351      C1359   1.284       .  A
O1351     Co1371   2.028       .  S
O1352      C1360   1.262       .  A
O1352     Co1372   2.023       .  S
O1353      C1359   1.267       .  A
O1353     Co1370   1.939       .  S
O1354      C1360   1.252       .  A
O1354     Co1369   1.995       .  S
O1355      C1358   1.223       .  A
O1355     Co1372   1.920       .  S
O1356      C1357   1.289       .  A
O1356     Co1371   2.082       .  S
C1357      C4692   1.496       .  S
C1358      C4677   1.508       .  S
C1359      C4629   1.473       .  S
C1360      C4665   1.476       .  S
O1361      C1374   1.279       .  A
O1361     Co1369   2.020       .  S
O1362      C1375   1.264       .  A
O1362     Co1370   2.025       .  S
O1363      C1376   1.276       .  A
O1363     Co1371   1.941       .  S
O1364      C1377   1.280       .  A
O1364     Co1372   2.109       .  S
O1365      C1377   1.227       .  A
O1365     Co1370   1.923       .  S
O1366      C1376   1.288       .  A
O1366     Co1369   2.070       .  S
O1367      C1374   1.267       .  A
O1367     Co1372   1.945       .  S
O1368      C1375   1.252       .  A
O1368     Co1371   1.992       .  S
Co1369     O1373   2.009       .  S
Co1370     O1373   2.064       .  S
Co1371     O1373   2.018       .  S
Co1372     O1373   2.059       .  S
C1374      C2177   1.452       .  S
C1375      C2189   1.479       .  S
C1376      C2240   1.493       .  S
C1377      C2156   1.508       .  S
O1378      C1386   1.273       .  A
O1378     Co1398   1.949       .  S
O1379      C1387   1.276       .  A
O1379     Co1399   2.110       .  S
O1380      C1388   1.277       .  A
O1381      C1389   1.264       .  A
O1381     Co1401   2.023       .  S
O1382      C1388   1.267       .  A
O1383      C1389   1.252       .  A
O1383     Co1398   1.990       .  S
O1384      C1387   1.224       .  A
O1384     Co1401   1.922       .  S
O1385      C1386   1.285       .  A
O1385     Co1400   2.064       .  S
C1386      C2261   1.488       .  S
C1387      C2141   1.511       .  S
C1388      C2168   1.454       .  S
C1389      C2204   1.494       .  S
O1390      C1403   1.279       .  A
O1390     Co1398   2.016       .  S
O1391      C1404   1.270       .  A
O1392      C1405   1.272       .  A
O1392     Co1400   1.939       .  S
O1393      C1406   1.282       .  A
O1393     Co1401   2.101       .  S
O1394      C1406   1.231       .  A
O1394     Co1399   1.914       .  S
O1395      C1405   1.286       .  A
O1395     Co1398   2.077       .  S
O1396      C1403   1.269       .  A
O1396     Co1401   1.946       .  S
O1397      C1404   1.257       .  A
Co1398     O1402   2.020       .  S
Co1399     O1402   2.068       .  S
Co1400     O1402   2.021       .  S
Co1401     O1402   2.058       .  S
C1403      C2180   1.467       .  S
C1404      C2192   1.502       .  S
C1405      C2252   1.481       .  S
C1406      C2132   1.492       .  S
O1407      C1415   1.228       .  A
O1407     Co1427   1.917       .  S
O1408      C1416   1.291       .  A
O1408     Co1428   2.073       .  S
O1409      C1417   1.267       .  A
O1409     Co1429   1.951       .  S
O1410      C1418   1.252       .  A
O1410     Co1430   1.991       .  S
O1411      C1417   1.275       .  A
O1411     Co1428   2.010       .  S
O1412      C1418   1.263       .  A
O1412     Co1427   2.028       .  S
O1413      C1416   1.276       .  A
O1413     Co1430   1.941       .  S
O1414      C1415   1.284       .  A
O1414     Co1429   2.114       .  S
C1415      C2216   1.509   1_455  S
C1416      C4536   1.492   1_455  S
C1417      C4545   1.452   1_455  S
C1418      C4572   1.482   1_455  S
O1419      C1432   1.267       .  A
O1419     Co1427   1.931       .  S
O1420      C1433   1.252       .  A
O1420     Co1428   1.995       .  S
O1421      C1434   1.225       .  A
O1421     Co1429   1.923       .  S
O1422      C1435   1.289       .  A
O1422     Co1430   2.080       .  S
O1423      C1435   1.268       .  A
O1423     Co1428   1.935       .  S
O1424      C1434   1.275       .  A
O1424     Co1427   2.103       .  S
O1425      C1432   1.284       .  A
O1425     Co1430   2.031       .  S
O1426      C1433   1.266       .  A
O1426     Co1429   2.033       .  S
Co1427     O1431   2.059       .  S
Co1428     O1431   2.007       .  S
Co1429     O1431   2.056       .  S
Co1430     O1431   2.019       .  S
C1432      C2093   1.474       .  S
C1433      C2120   1.489       .  S
C1434      C2144   1.508       .  S
C1435      C2057   1.492       .  S
O1436      C1444   1.222       .  A
O1436     Co1456   1.920       .  S
O1437      C1445   1.287       .  A
O1437     Co1457   2.081       .  S
O1438     Co1458   1.939       .  S
O1439      C1447   1.256       .  A
O1439     Co1459   2.008       .  S
O1440     Co1457   2.018       .  S
O1441      C1447   1.262       .  A
O1441     Co1456   2.017       .  S
O1442      C1445   1.271       .  A
O1442     Co1459   1.944       .  S
O1443      C1444   1.275       .  A
O1443     Co1458   2.110       .  S
C1444      C2153   1.508       .  S
C1445      C2033   1.486       .  S
C1446      C2084   1.467       .  S
C1447      C2105   1.495       .  S
O1448      C1461   1.268       .  A
O1448     Co1456   1.942       .  S
O1449     Co1457   1.995       .  S
O1450      C1463   1.228       .  A
O1450     Co1458   1.915       .  S
O1451      C1464   1.288       .  A
O1451     Co1459   2.075       .  S
O1452      C1464   1.275       .  A
O1452     Co1457   1.939       .  S
O1453      C1463   1.282       .  A
O1453     Co1456   2.108       .  S
O1454      C1461   1.278       .  A
O1454     Co1459   2.018       .  S
O1455     Co1458   2.033       .  S
Co1456     O1460   2.047       .  S
Co1457     O1460   2.012       .  S
Co1458     O1460   2.070       .  S
Co1459     O1460   2.023       .  S
C1461      C2096   1.462       .  S
C1462      C2117   1.495       .  S
C1463      C2129   1.494       .  S
C1464      C2045   1.498       .  S
O1465      C1473   1.269       .  A
O1465     Co1485   2.052       .  S
O1466      C1474   1.234       .  A
O1466     Co1486   1.932       .  S
O1467      C1475   1.249       .  A
O1467     Co1487   1.953       .  S
O1468      C1476   1.243       .  A
O1468     Co1488   1.933       .  S
O1469      C1475   1.260       .  A
O1469     Co1486   2.022       .  S
O1470      C1476   1.257       .  A
O1470     Co1485   2.000       .  S
O1471      C1474   1.271       .  A
O1471     Co1488   2.077       .  S
O1472      C1473   1.248       .  A
O1472     Co1487   1.935       .  S
C1473      C2384   1.480       .  S
C1474      C2021   1.480       .  S
C1475      C2012   1.474       .  S
O1477      C1490   1.260       .  A
O1477     Co1485   1.887       .  S
O1478      C1491   1.252       .  A
O1478     Co1486   1.919       .  S
O1479      C1492   1.269   1_455  A
O1479     Co1487   2.034       .  S
O1480      C1493   1.222       .  A
O1480     Co1488   1.906       .  S
O1481      C1493   1.255       .  A
O1481     Co1486   2.060       .  S
O1482      C1492   1.255       .  A
O1482     Co1485   1.963   1_655  S
O1483      C1490   1.289       .  A
O1483     Co1488   2.092       .  S
O1484      C1491   1.273       .  A
O1484     Co1487   2.020       .  S
Co1485     O1489   2.016       .  S
Co1486     O1489   2.118       .  S
Co1487     O1489   2.073       .  S
Co1488     O1489   2.118       .  S
C1490      C3232   1.478   1_455  S
C1491      C4440   1.440   1_455  S
C1492      C4833   1.493       .  S
C1493      C1961   1.484       .  S
O1494      C1502   1.255       .  A
O1494     Co1514   1.966       .  S
O1495      C1503   1.260       .  A
O1495     Co1515   1.888       .  S
O1496      C1504   1.245       .  A
O1496     Co1516   1.919       .  S
O1497      C1505   1.262       .  A
O1497     Co1517   1.959       .  S
O1498      C1504   1.280       .  A
O1498     Co1515   2.101       .  S
O1499      C1505   1.258       .  A
O1499     Co1514   1.979       .  S
O1500      C1503   1.311       .  A
O1500     Co1517   2.128       .  S
O1501      C1502   1.261       .  A
O1501     Co1516   1.987       .  S
C1502      C2324   1.469       .  S
C1503      C1949   1.481       .  S
C1504      C1997   1.490       .  S
C1505      C1973   1.458       .  S
O1506      C1519   1.244       .  A
O1506     Co1514   1.938       .  S
O1507      C1520   1.255       .  A
O1507     Co1515   1.953       .  S
O1508      C1521   1.258       .  A
O1508     Co1516   1.965       .  S
O1509      C1522   1.267       .  A
O1509     Co1517   1.889       .  S
O1510      C1522   1.315       .  A
O1510     Co1515   2.134       .  S
O1511      C1521   1.258       .  A
O1511     Co1514   1.971       .  S
O1512      C1519   1.267       .  A
O1512     Co1517   2.085       .  S
O1513      C1520   1.260       .  A
O1513     Co1516   1.995       .  S
Co1514     O1518   2.054       .  S
Co1515     O1518   2.031       .  S
Co1516     O1518   2.080       .  S
Co1517     O1518   2.060       .  S
C1519      C2009   1.464       .  S
C1520      C1988   1.447       .  S
C1521      C2336   1.460       .  S
C1522      C1937   1.485       .  S
O1523      C1531   1.273       .  A
O1524      C1532   1.275       .  A
O1524     Co1544   1.938       .  S
O1525      C1533   1.263       .  A
O1525     Co1545   2.021       .  S
O1526      C1534   1.276       .  A
O1526     Co1546   2.016       .  S
O1527      C1533   1.253       .  A
O1527     Co1544   2.002       .  S
O1528      C1534   1.264       .  A
O1528     Co1543   1.942       .  S
O1529      C1532   1.287       .  A
O1530      C1531   1.239       .  A
O1530     Co1545   1.932       .  S
C1531      C1952   1.501       .  S
C1532      C1865   1.501       .  S
C1533      C1928   1.499       .  S
C1534      C1901   1.464       .  S
O1535      C1548   1.266       .  A
O1535     Co1543   2.030       .  S
O1536      C1549   1.281       .  A
O1536     Co1544   2.027       .  S
O1537      C1550   1.272       .  A
O1537     Co1545   2.075       .  S
O1538      C1551   1.270       .  A
O1539      C1551   1.287       .  A
O1539     Co1544   2.082       .  S
O1540     Co1543   1.910       .  S
O1541      C1548   1.251       .  A
O1541     Co1546   1.994       .  S
O1542      C1549   1.268       .  A
O1542     Co1545   1.945       .  S
Co1544     O1547   2.019       .  S
Co1545     O1547   2.068       .  S
C1548      C4377   1.485       .  S
C1549      C4356   1.478       .  S
C1551      C4344   1.482       .  S
O1552      C1560   1.275       .  A
O1552     Co1572   2.080       .  S
O1553      C1561   1.274       .  A
O1553     Co1573   1.955       .  S
O1554      C1562   1.263       .  A
O1554     Co1574   2.026       .  S
O1555      C1563   1.274       .  A
O1555     Co1575   2.005       .  S
O1556      C1562   1.253       .  A
O1556     Co1573   1.998       .  S
O1557      C1563   1.268       .  A
O1557     Co1572   1.961       .  S
O1558      C1561   1.281       .  A
O1558     Co1575   2.053       .  S
O1559      C1560   1.236       .  A
O1559     Co1574   1.924       .  S
C1560      C1940   1.499       .  S
C1561      C1853   1.490       .  S
C1562      C1925   1.483       .  S
C1563      C1904   1.451       .  S
O1564      C1577   1.267       .  A
O1564     Co1572   2.024       .  S
O1565      C1578   1.280       .  A
O1565     Co1573   2.031       .  S
O1566      C1579   1.276       .  A
O1566     Co1574   2.064       .  S
O1567      C1580   1.272       .  A
O1567     Co1575   1.936       .  S
O1568      C1580   1.286       .  A
O1568     Co1573   2.075       .  S
O1569      C1579   1.240       .  A
O1569     Co1572   1.931       .  S
O1570      C1577   1.253       .  A
O1570     Co1575   1.986       .  S
O1571      C1578   1.264       .  A
O1571     Co1574   1.944       .  S
Co1572     O1576   2.071       .  S
Co1573     O1576   2.032       .  S
Co1574     O1576   2.053       .  S
Co1575     O1576   2.022       .  S
C1577      C1916   1.482       .  S
C1578      C1889   1.470       .  S
C1579      C2024   1.479       .  S
C1580      C1841   1.480       .  S
O1581      C1589   1.274       .  A
O1581     Co1601   1.937       .  S
O1582      C1590   1.280       .  A
O1582     Co1602   2.106       .  S
O1583      C1591   1.279       .  A
O1583     Co1603   2.024       .  S
O1584      C1592   1.262       .  A
O1584     Co1604   2.022       .  S
O1585      C1591   1.266       .  A
O1585     Co1602   1.940       .  S
O1586      C1592   1.253       .  A
O1586     Co1601   1.991       .  S
O1587      C1590   1.227       .  A
O1587     Co1604   1.916       .  S
O1588      C1589   1.290       .  A
O1588     Co1603   2.075       .  S
C1589      C1856   1.490       .  S
C1590      C1769   1.493       .  S
C1591      C1796   1.481       .  S
C1592      C1808   1.491       .  S
O1593      C1606   1.280       .  A
O1593     Co1601   2.018       .  S
O1594      C1607   1.267       .  A
O1594     Co1602   2.032       .  S
O1595      C1608   1.272       .  A
O1595     Co1603   1.943       .  S
O1596      C1609   1.272       .  A
O1596     Co1604   2.102       .  S
O1597      C1609   1.224       .  A
O1597     Co1602   1.912       .  S
O1598      C1608   1.285       .  A
O1598     Co1601   2.071       .  S
O1599      C1606   1.269       .  A
O1599     Co1604   1.941       .  S
O1600      C1607   1.252       .  A
O1600     Co1603   1.998       .  S
Co1601     O1605   2.009       .  S
Co1602     O1605   2.050       .  S
Co1603     O1605   2.022       .  S
Co1604     O1605   2.070       .  S
C1606      C4248   1.468       .  S
C1607      C4281   1.491       .  S
C1608      C4308   1.480       .  S
C1609      C1832   1.506       .  S
O1610      C1618   1.289       .  A
O1610     Co1630   2.080       .  S
O1611      C1619   1.236       .  A
O1611     Co1631   1.924       .  S
O1612      C1620   1.254   1_545  A
O1613      C1621   1.268       .  A
O1613     Co1633   1.943       .  S
O1614      C1620   1.268       .  A
O1615      C1621   1.280       .  A
O1615     Co1630   2.027       .  S
O1616      C1619   1.284       .  A
O1616     Co1633   2.106       .  S
O1617      C1618   1.269       .  A
O1617     Co1632   1.938       .  S
C1618      C2048   1.480       .  S
C1619      C1712   1.501       .  S
C1620      C1745   1.490       .  S
C1621      C1733   1.466       .  S
O1622      C1635   1.252       .  A
O1622     Co1630   2.006       .  S
O1623      C1636   1.263       .  A
O1624      C1637   1.288       .  A
O1624     Co1632   2.084       .  S
O1625      C1638   1.226       .  A
O1625     Co1633   1.920       .  S
O1626      C1638   1.278       .  A
O1626     Co1631   2.100       .  S
O1627      C1637   1.272       .  A
O1627     Co1630   1.944       .  S
O1628      C1635   1.265       .  A
O1628     Co1633   2.034       .  S
O1629      C1636   1.272   1_455  A
Co1630     O1634   2.032       .  S
Co1631     O1634   2.076       .  S
Co1632     O1634   2.015       .  S
Co1633     O1634   2.044       .  S
C1635      C4224   1.496   1_455  S
C1636      C4188   1.442   1_545  S
C1637      C4500   1.486   1_455  S
C1638      C1829   1.505   1_455  S
O1639      C1647   1.270       .  A
O1639     Co1659   1.951       .  S
O1640      C1648   1.277       .  A
O1640     Co1660   2.115       .  S
O1641      C1649   1.279       .  A
O1642      C1650   1.262       .  A
O1642     Co1662   2.028       .  S
O1643      C1649   1.268       .  A
O1644      C1650   1.250       .  A
O1644     Co1659   1.990       .  S
O1645      C1648   1.222       .  A
O1645     Co1662   1.920       .  S
O1646      C1647   1.285       .  A
O1646     Co1661   2.074       .  S
C1647      C1868   1.489       .  S
C1648      C1697   1.516       .  S
C1649      C1793   1.461       .  S
C1650      C1805   1.476       .  S
O1651      C1664   1.278       .  A
O1651     Co1659   2.017       .  S
O1652      C1665   1.271       .  A
O1653      C1666   1.275       .  A
O1653     Co1661   1.942       .  S
O1654      C1667   1.287       .  A
O1654     Co1662   2.107       .  S
O1655      C1667   1.238       .  A
O1655     Co1660   1.924       .  S
O1656      C1666   1.284       .  A
O1656     Co1659   2.065       .  S
O1657      C1664   1.268       .  A
O1657     Co1662   1.947       .  S
O1658      C1665   1.256       .  A
Co1659     O1663   2.017       .  S
Co1660     O1663   2.072       .  S
Co1661     O1663   2.040       .  S
Co1662     O1663   2.054       .  S
C1664      C1781   1.451       .  S
C1665      C1820   1.493       .  S
C1666      C1877   1.484       .  S
C1667      C1709   1.501       .  S
O1668      C1676   1.288       .  A
O1668     Co1688   2.071       .  S
O1669      C1677   1.225       .  A
O1669     Co1689   1.922       .  S
O1670      C1678   1.255       .  A
O1670     Co1690   1.998       .  S
O1671      C1679   1.261       .  A
O1671     Co1691   1.930       .  S
O1672      C1678   1.265       .  A
O1672     Co1689   2.025       .  S
O1673      C1679   1.285       .  A
O1673     Co1688   2.045       .  S
O1674      C1677   1.280       .  A
O1674     Co1691   2.121       .  S
O1675      C1676   1.271       .  A
O1675     Co1690   1.935       .  S
C1676      C2060   1.483       .  S
C1677      C1700   1.515       .  S
C1678      C1748   1.492       .  S
C1679      C1736   1.478       .  S
O1680      C1693   1.251       .  A
O1680     Co1688   1.991       .  S
O1681      C1694   1.266       .  A
O1681     Co1689   1.929       .  S
O1682      C1695   1.291       .  A
O1682     Co1690   2.081       .  S
O1683      C1696   1.226       .  A
O1683     Co1691   1.915       .  S
O1684      C1696   1.281       .  A
O1684     Co1689   2.108       .  S
O1685      C1695   1.275       .  A
O1685     Co1688   1.942       .  S
O1686      C1693   1.267       .  A
O1686     Co1691   2.045       .  S
O1687      C1694   1.278       .  A
O1687     Co1690   2.017       .  S
Co1688     O1692   2.022       .  S
Co1689     O1692   2.054       .  S
Co1690     O1692   2.014       .  S
Co1691     O1692   2.053       .  S
C1693      C1757   1.500       .  S
C1694      C1721   1.469       .  S
C1695      C2069   1.501       .  S
C1696      C1772   1.494       .  S
C1697      C1698   1.428       .  A
C1697      C1702   1.402       .  A
C1698      C1699   1.412       .  A
C1698      H1703   1.084       .  S
C1699      C1700   1.404       .  A
C1699      C1706   1.443       .  S
C1700      C1701   1.428       .  A
C1701      C1702   1.411       .  A
C1701      H1704   1.084       .  S
C1702      C1705   1.442       .  S
C1705      N1707   1.157       .  T
C1706      N1708   1.157       .  T
C1709      C1710   1.403       .  A
C1710      C1711   1.412   1_565  A
C1710      H1715   1.081       .  S
C1711      C1718   1.441       .  S
C1712      C1713   1.406       .  A
C1713      C1714   1.416       .  A
C1713      H1716   1.082       .  S
C1714      C1717   1.444       .  S
C1717      N1719   1.157       .  T
C1718      N1720   1.156       .  T
C1721      C1722   1.405       .  A
C1721      C1726   1.418       .  A
C1722      C1723   1.382       .  A
C1722      H1727   1.085       .  S
C1723      C1724   1.402       .  A
C1723      C1730   1.447       .  S
C1724      C4100   1.442   1_565  S
C1724      C1725   1.396       .  A
C1725      C1726   1.397       .  A
C1725      H1728   1.085   1_565  S
C1726      C1729   1.445       .  S
C1729      N1731   1.158       .  T
C1730      N4196   1.158       .  T
N1732      C4194   1.158   1_455  T
C1733      C1734   1.396       .  A
C1733      C1738   1.409       .  A
C1734      C1735   1.383       .  A
C1734      H1739   1.086       .  S
C1735      C1736   1.421       .  A
C1735      C1742   1.448       .  S
C1736      C1737   1.407       .  A
C1737      C1738   1.405       .  A
C1737      H1740   1.083       .  S
C1738      C1741   1.442       .  S
C1741      N1743   1.157       .  T
C1742      N1744   1.158       .  T
C1745      C1746   1.407       .  A
C1745      C1750   1.412       .  A
C1746      C1747   1.404       .  A
C1747      C1748   1.412       .  A
C1747      C1754   1.444       .  S
C1748      C1749   1.409       .  A
C1749      C1750   1.408       .  A
C1749      H1752   1.084       .  S
C1750      C1753   1.443       .  S
C1753      N1755   1.157       .  T
C1754      N1756   1.157       .  T
C1757      C1758   1.411       .  A
C1757      C1762   1.414       .  A
C1758      C1759   1.408       .  A
C1758      H1763   1.084       .  S
C1759      C1760   1.411       .  A
C1759      C4230   1.444       .  S
C1760      C4099   1.496       .  S
C1760      C1761   1.409       .  A
C1761      C1762   1.409       .  A
C1761      H1764   1.085       .  S
C1762      C1765   1.444       .  S
C1765      N1767   1.157       .  T
C1766      C4223   1.444   1_455  S
C1766      N1768   1.157       .  T
C1769      C1770   1.389       .  A
C1769      C1774   1.434       .  A
C1770      C1771   1.404       .  A
C1770      H1775   1.085       .  S
C1771      C1772   1.434       .  A
C1771      C1778   1.443       .  S
C1772      C1773   1.390       .  A
C1773      C1774   1.404       .  A
C1773      H1776   1.085       .  S
C1774      C1777   1.444       .  S
C1777      N1779   1.157       .  T
C1778      N1780   1.157       .  T
C1781      C1782   1.397       .  A
C1781      C1786   1.407       .  A
C1782      C1783   1.397       .  A
C1782      H1787   1.085       .  S
C1783      C1784   1.416       .  A
C1783      C4254   1.443   1_455  S
C1784      C4070   1.468       .  S
C1784      C1785   1.402       .  A
C1785      C1786   1.388       .  A
C1785      H1788   1.085       .  S
C1786      C1789   1.445       .  S
C1789      N1791   1.157       .  T
C1790      C4247   1.443       .  S
C1790      N1792   1.157       .  T
C1793      C1794   1.401       .  A
C1793      C1798   1.407       .  A
C1794      C1795   1.404       .  A
C1794      H1799   1.085       .  S
C1795      C1796   1.418       .  A
C1795      C1802   1.443       .  S
C1796      C1797   1.406       .  A
C1797      C1798   1.385       .  A
C1797      H1800   1.084       .  S
C1798      C1801   1.448       .  S
C1801      N1803   1.158       .  T
C1802      N1804   1.157       .  T
C1805      C1806   1.403       .  A
C1805      C1810   1.407       .  A
C1806      C1807   1.403       .  A
C1806      H1811   1.085       .  S
C1807      C1808   1.416       .  A
C1807      C1814   1.444       .  S
C1808      C1809   1.410       .  A
C1809      C1810   1.401       .  A
C1809      H1812   1.084       .  S
C1810      C1813   1.444       .  S
C1813      N1815   1.157       .  T
C1814      N1816   1.157       .  T
C1817      C4071   1.491   1_455  S
C1817      C1818   1.402       .  A
C1817      C1822   1.418       .  A
C1818      C1819   1.405       .  A
C1818      H1823   1.085       .  S
C1819      C1820   1.416       .  A
C1819      C1826   1.439       .  S
C1820      C1821   1.400       .  A
C1821      C1822   1.404       .  A
C1821      H1824   1.085       .  S
C1822      C1825   1.437       .  S
C1825      N1827   1.156       .  T
C1826      N1828   1.156       .  T
C1829      C4294   1.427   1_655  A
C1829      C1834   1.401       .  A
C1830      C4293   1.427       .  A
C1830      C1831   1.407       .  A
C1830      H1835   1.084       .  S
C1831      C1832   1.401       .  A
C1831      C1838   1.443       .  S
C1832      C4297   1.426       .  A
C1833      C4296   1.426       .  A
C1833      C1834   1.406       .  A
C1833      H1836   1.084       .  S
C1834      C1837   1.443       .  S
C1837      N1839   1.157       .  T
C1838      N1840   1.157       .  T
C1841      C1842   1.399       .  A
C1841      C1846   1.416       .  A
C1842      C1843   1.401       .  A
C1842      H1847   1.085       .  S
C1843      C1844   1.417       .  A
C1843      C1850   1.444       .  S
C1844      C4072   1.480   1_455  S
C1844      C1845   1.401       .  A
C1845      C1846   1.404       .  A
C1845      H4312   1.085   1_455  S
C1846      C1849   1.444       .  S
H1848      C4309   1.085       .  S
C1849      N1851   1.157       .  T
C1850      N1852   1.157       .  T
C1853      C1854   1.405       .  A
C1853      C1858   1.418       .  A
C1854      C1855   1.410       .  A
C1854      H1859   1.084       .  S
C1855      C1856   1.415       .  A
C1855      C1862   1.437       .  S
C1856      C1857   1.401       .  A
C1857      C1858   1.398       .  A
C1857      H1860   1.084       .  S
C1858      C1861   1.446       .  S
C1861      N1863   1.157       .  T
C1862      N1864   1.155       .  T
C1865      C1866   1.408       .  A
C1865      C1870   1.415       .  A
C1866      C1867   1.400       .  A
C1867      C1868   1.411       .  A
C1868      C1869   1.409       .  A
C1869      C1870   1.414       .  A
C1869      H1872   1.084       .  S
C1870      C1873   1.441       .  S
C1873      N1875   1.157       .  T
C1874      N1876   1.157       .  T
C1877      C1878   1.401       .  A
C1877      C1882   1.417       .  A
C1878      C1879   1.405       .  A
C1878      H1883   1.085       .  S
C1879      C1880   1.416       .  A
C1879      C1886   1.443       .  S
C1880      C4015   1.482   1_455  S
C1880      C1881   1.400       .  A
C1881      C1882   1.403       .  A
C1881      H4348   1.085   1_455  S
C1882      C1885   1.445       .  S
H1884      C4345   1.085       .  S
C1885      N1887   1.157       .  T
C1886      N1888   1.157       .  T
C1889      C1890   1.404       .  A
C1889      C1894   1.412       .  A
C1890      C1891   1.405       .  A
C1890      H1895   1.084       .  S
C1891      C1892   1.415       .  A
C1891      C1898   1.444       .  S
C1892      C4013   1.478   1_455  S
C1892      C1893   1.403       .  A
C1893      C1894   1.387       .  A
C1893      H1896   1.085       .  S
C1894      C1897   1.448       .  S
C1897      N1899   1.158       .  T
C1898      N1900   1.157       .  T
C1901      C1902   1.405       .  A
C1901      C1906   1.413       .  A
C1902      C1903   1.398       .  A
C1902      H1907   1.085       .  S
C1903      C1904   1.405       .  A
C1903      C1910   1.443       .  S
C1904      C1905   1.396       .  A
C1905      C1906   1.389       .  A
C1905      H1908   1.086       .  S
C1906      C1909   1.445       .  S
C1909      N1911   1.157       .  T
C1910      N1912   1.157       .  T
C1913      C4012   1.485   1_455  S
C1913      C1914   1.404       .  A
C1913      C1918   1.415       .  A
C1914      C1915   1.405       .  A
C1914      H1919   1.085       .  S
C1915      C1916   1.413       .  A
C1915      C1922   1.440       .  S
C1916      C1917   1.396       .  A
C1917      C1918   1.400       .  A
C1917      H1920   1.085       .  S
C1918      C1921   1.435       .  S
C1921      N1923   1.155       .  T
C1922      N1924   1.156       .  T
C1925      C1926   1.399       .  A
C1925      C1930   1.411       .  A
C1926      C1927   1.404       .  A
C1926      H1931   1.085       .  S
C1927      C1928   1.421       .  A
C1927      C1934   1.441       .  S
C1928      C1929   1.408       .  A
C1929      C1930   1.406       .  A
C1929      H1932   1.085       .  S
C1930      C1933   1.444       .  S
C1933      N1935   1.157       .  T
C1934      N1936   1.156       .  T
C1937      C1938   1.416       .  A
C1937      C1942   1.400       .  A
C1938      C1939   1.410       .  A
C1938      H1943   1.085       .  S
C1939      C1940   1.406       .  A
C1939      C1946   1.442       .  S
C1940      C1941   1.420       .  A
C1941      C1942   1.401       .  A
C1941      H1944   1.085       .  S
C1942      C1945   1.444       .  S
C1945      N1947   1.157       .  T
C1946      N1948   1.157       .  T
C1949      C1950   1.414       .  A
C1949      C1954   1.403       .  A
C1950      C1951   1.410       .  A
C1950      H1955   1.084       .  S
C1951      C1952   1.410       .  A
C1951      C1958   1.442       .  S
C1952      C1953   1.418       .  A
C1953      C1954   1.399       .  A
C1953      H1956   1.084       .  S
C1954      C1957   1.444       .  S
C1957      N1959   1.157       .  T
C1958      N1960   1.157   1_565  T
C1961      C1962   1.390   1_455  A
C1961      C4430   1.429       .  A
C1962      C4427   1.399       .  A
C1962      H1967   1.085       .  S
C1963      C4426   1.399       .  A
C1963      C1964   1.430       .  A
C1963      C4434   1.444       .  S
C1964      C1965   1.387       .  A
C1965      C1966   1.399       .  A
C1966      C4425   1.429       .  A
C1966      C1969   1.439       .  S
C1969      N1971   1.157       .  T
C1970      C4427   1.444       .  S
C1970      N1972   1.157       .  T
C1973      C1974   1.398       .  A
C1973      C1978   1.421       .  A
C1974      C1975   1.386       .  A
C1974      H1979   1.085       .  S
C1975      C1976   1.410       .  A
C1975      C1982   1.447       .  S
C1976      C3955   1.440       .  S
C1976      C1977   1.390       .  A
C1977      C1978   1.390       .  A
C1977      H1980   1.086       .  S
C1978      C1981   1.446       .  S
C1981      N1983   1.157       .  T
C1982      N1984   1.157       .  T
C1985      C1986   1.404       .  A
C1985      C1990   1.411       .  A
C1986      C1987   1.387       .  A
C1986      H1991   1.085       .  S
C1987      C1988   1.402       .  A
C1987      C1994   1.444       .  S
C1988      C1989   1.400       .  A
C1989      C1990   1.396       .  A
C1989      H1992   1.085       .  S
C1993      N1995   1.157       .  T
C1994      N1996   1.157       .  T
C1997      C1998   1.396       .  A
C1997      C2002   1.424       .  A
C1998      C1999   1.399       .  A
C1998      H2003   1.083       .  S
C1999      C2000   1.420       .  A
C1999      C2006   1.440   1_565  S
C2000      C2722   1.478       .  S
C2000      C2001   1.394       .  A
C2001      C2002   1.399       .  A
C2001      H2004   1.086       .  S
C2002      C2005   1.438       .  S
C2005      N2007   1.155       .  T
C2009      C2010   1.405       .  A
C2009      C2014   1.405       .  A
C2010      C2011   1.402       .  A
C2010      H2015   1.085       .  S
C2011      C2012   1.410       .  A
C2011      C2018   1.444       .  S
C2012      C2013   1.405       .  A
C2013      C2014   1.394       .  A
C2013      H2016   1.085       .  S
C2014      C2017   1.445       .  S
C2017      N2019   1.157       .  T
C2018      N2020   1.157       .  T
C2021      C2022   1.405       .  A
C2021      C2026   1.413       .  A
C2022      C2023   1.406       .  A
C2022      H2027   1.084       .  S
C2023      C2024   1.415       .  A
C2023      C2030   1.444       .  S
C2024      C2025   1.403       .  A
C2025      C2026   1.402       .  A
C2025      H2028   1.082       .  S
C2026      C2029   1.443       .  S
C2029      N2031   1.157       .  T
C2030      N2032   1.157       .  T
C2033      C2034   1.407       .  A
C2033      C2038   1.409       .  A
C2034      C2035   1.405       .  A
C2034      H2039   1.084       .  S
C2035      C2036   1.409       .  A
C2035      C4506   1.443       .  S
C2036      C4101   1.486       .  S
C2036      C2037   1.408       .  A
C2037      C2038   1.407       .  A
C2037      H2040   1.085       .  S
C2038      C2041   1.443       .  S
C2041      N2043   1.157       .  T
C2042      C4499   1.443   1_455  S
C2042      N2044   1.157       .  T
C2045      C2046   1.407       .  A
C2045      C2050   1.421       .  A
C2046      C2047   1.408       .  A
C2046      H2051   1.084       .  S
C2047      C2048   1.411       .  A
C2047      C2054   1.437       .  S
C2048      C2049   1.393       .  A
C2049      C2050   1.397       .  A
C2049      H2052   1.085       .  S
C2050      C2053   1.438       .  S
C2053      N2055   1.155       .  T
C2054      N2056   1.156       .  T
C2057      C2058   1.403       .  A
C2057      C2062   1.417       .  A
C2058      C2059   1.395       .  A
C2058      H2063   1.081       .  S
C2059      C2060   1.411       .  A
C2059      C2066   1.445       .  S
C2060      C2061   1.406       .  A
C2061      C2062   1.410       .  A
C2061      H2064   1.084       .  S
C2062      C2065   1.443       .  S
C2065      N2067   1.157       .  T
C2066      N2068   1.157       .  T
C2069      C2070   1.411       .  A
C2069      C2074   1.417       .  A
C2070      C2071   1.415       .  A
C2070      H2075   1.084       .  S
C2071      C2072   1.416       .  A
C2071      C2078   1.443       .  S
C2072      C3880   1.492       .  S
C2072      C2073   1.401       .  A
C2073      C2074   1.398       .  A
C2073      H2076   1.086       .  S
C2074      C2077   1.440       .  S
C2077      N2079   1.155       .  T
C2078      N2080   1.157       .  T
C2081      C3881   1.452       .  S
C2081      C2082   1.399       .  A
C2081      C2086   1.406       .  A
C2082      C2083   1.399       .  A
C2082      H2087   1.085       .  S
C2083      C2084   1.416       .  A
C2083      C2090   1.445       .  S
C2084      C2085   1.402       .  A
C2085      C2086   1.387       .  A
C2085      H2088   1.085   1_565  S
C2086      C4553   1.445       .  S
C2089      C4550   1.445   1_455  S
C2089      N2091   1.157       .  T
C2090      N2092   1.157       .  T
C2093      C2094   1.407       .  A
C2093      C2098   1.414       .  A
C2094      C2095   1.384       .  A
C2094      H2099   1.085       .  S
C2095      C2096   1.407       .  A
C2095      C2102   1.448       .  S
C2096      C2097   1.402       .  A
C2097      C2098   1.399       .  A
C2097      H2100   1.085       .  S
C2098      C2101   1.443       .  S
C2101      N2103   1.157       .  T
C2102      N2104   1.158       .  T
C2105      C2106   1.410       .  A
C2105      C2110   1.417       .  A
C2106      C2107   1.406       .  A
C2106      H2111   1.083       .  S
C2107      C2108   1.408       .  A
C2107      C2114   1.444       .  S
C2108      C3882   1.482       .  S
C2108      C2109   1.403       .  A
C2109      C2110   1.403       .  A
C2109      H2112   1.085       .  S
C2110      C2113   1.444       .  S
C2113      N2115   1.157       .  T
C2114      N4580   1.157       .  T
N2116      C4578   1.157       .  T
C2117      C2118   1.405       .  A
C2117      C2122   1.419       .  A
C2118      C2119   1.407       .  A
C2118      H2123   1.085       .  S
C2119      C2120   1.416       .  A
C2119      C2126   1.444       .  S
C2120      C2121   1.400       .  A
C2121      C2122   1.403       .  A
C2121      H2124   1.084       .  S
C2125      N2127   1.156       .  T
C2126      N2128   1.157       .  T
C2129      C2130   1.393   1_556  A
C2129      C2134   1.433       .  A
C2130      H2135   1.085       .  S
C2131      C2132   1.430   1_545  A
C2131      C2138   1.445       .  S
C2132      C2133   1.391       .  A
C2133      H2136   1.085       .  S
C2134      C2137   1.445       .  S
C2137      N2139   1.158       .  T
C2138      N2140   1.158       .  T
C2141      C2142   1.427       .  A
C2141      C2146   1.405       .  A
C2142      C2143   1.409       .  A
C2142      H2147   1.084       .  S
C2143      C2144   1.404   1_554  A
C2143      C2150   1.443       .  S
C2144      C2145   1.424       .  A
C2145      C2146   1.407   1_556  A
C2145      H2148   1.084       .  S
C2146      C2149   1.441       .  S
C2149      N2151   1.157       .  T
C2150      N2152   1.157       .  T
C2153      C2154   1.427       .  A
C2153      C2158   1.403   1_556  A
C2154      C2155   1.408   1_556  A
C2154      H2159   1.084       .  S
C2155      C2156   1.403       .  A
C2155      C2162   1.443       .  S
C2156      C2157   1.426       .  A
C2157      C2158   1.407       .  A
C2157      H2160   1.084       .  S
C2158      C2161   1.443       .  S
C2161      N2163   1.157       .  T
C2162      N2164   1.157   1_554  T
C2165      C3823   1.473   1_455  S
C2165      C2166   1.405       .  A
C2165      C2170   1.417       .  A
C2166      C2167   1.398       .  A
C2166      H4635   1.085   1_455  S
C2167      C2168   1.404       .  A
C2168      C2169   1.394       .  A
C2169      C2170   1.389       .  A
C2169      H2172   1.087       .  S
C2170      C2173   1.442       .  S
H2171      C4630   1.085       .  S
C2173      N2175   1.156       .  T
C2174      N2176   1.156       .  T
C2177      C2178   1.397       .  A
C2177      C2182   1.407       .  A
C2178      C2179   1.397       .  A
C2178      H2183   1.085       .  S
C2179      C2180   1.416       .  A
C2179      C2186   1.445       .  S
C2180      C2181   1.402       .  A
C2181      C2182   1.391       .  A
C2181      H2184   1.085       .  S
C2182      C2185   1.446       .  S
C2185      N2187   1.157       .  T
C2186      N2188   1.157       .  T
C2189      C2190   1.401       .  A
C2189      C2194   1.406       .  A
C2190      C2191   1.407       .  A
C2190      H2195   1.085       .  S
C2191      C2192   1.418       .  A
C2191      C2198   1.439       .  S
C2192      C2193   1.411       .  A
C2193      C2194   1.404       .  A
C2193      H2196   1.080       .  S
C2194      C2197   1.444       .  S
C2197      N2199   1.157       .  T
C2198      N2200   1.156       .  T
C2201      C3824   1.476   1_455  S
C2201      C2202   1.397       .  A
C2201      C2206   1.409       .  A
C2202      C2203   1.401       .  A
C2202      H2207   1.085   1_455  S
C2203      C2204   1.421       .  A
C2203      C2210   1.440       .  S
C2204      C2205   1.405       .  A
C2205      C2206   1.402       .  A
C2205      H2208   1.085       .  S
C2206      C2209   1.439       .  S
C2209      N2211   1.155       .  T
C2210      N2212   1.156       .  T
C2213      C3822   1.508       .  S
C2213      C2214   1.427   1_655  A
C2213      C4682   1.403       .  A
C2214      C2215   1.408       .  A
C2214      H2219   1.084       .  S
C2215      C2216   1.403   1_454  A
C2215      C2222   1.443       .  S
C2216      C4681   1.427       .  A
C2217      C4680   1.427       .  A
C2217      C2218   1.408   1_556  A
C2217      H2220   1.084       .  S
C2218      C4677   1.403       .  A
C2218      C2221   1.443       .  S
C2221      N2223   1.157   1_554  T
C2222      N2224   1.157       .  T
C2225      C2226   1.405       .  A
C2225      C2230   1.413       .  A
C2226      C2227   1.401       .  A
C2226      H2231   1.085       .  S
C2227      C2228   1.417       .  A
C2227      C2234   1.445       .  S
C2228      C3821   1.496   1_455  S
C2228      C2229   1.409       .  A
C2229      C2230   1.411       .  A
C2229      H2232   1.084       .  S
C2230      C2233   1.441       .  S
C2233      N2235   1.156       .  T
C2234      N2236   1.157       .  T
C2237      C2238   1.403       .  A
C2237      C2242   1.417       .  A
C2238      C2239   1.400       .  A
C2238      H2243   1.085       .  S
C2239      C2240   1.417       .  A
C2239      C2246   1.445       .  S
C2240      C2241   1.407       .  A
C2241      C2242   1.410       .  A
C2241      H2244   1.084       .  S
C2242      C2245   1.444       .  S
C2245      N2247   1.157       .  T
C2246      N2248   1.157       .  T
C2249      C2250   1.408       .  A
C2249      C2254   1.411       .  A
C2250      C2251   1.405       .  A
C2250      H2255   1.085       .  S
C2251      C2252   1.408       .  A
C2251      C2258   1.445       .  S
C2252      C2253   1.406       .  A
C2253      C2254   1.405       .  A
C2253      H2256   1.084       .  S
C2254      C2257   1.444       .  S
C2257      N2259   1.157       .  T
C2258      N2260   1.157       .  T
C2261      C2262   1.407       .  A
C2261      C2266   1.412       .  A
C2262      C2263   1.414       .  A
C2262      H2267   1.084       .  S
C2263      C2264   1.416       .  A
C2263      C2270   1.442       .  S
C2264      C2265   1.406       .  A
C2265      C2266   1.396       .  A
C2265      H2268   1.085       .  S
C2266      C2269   1.446       .  S
C2270      N2272   1.157       .  T
C2273      C2274   1.397       .  A
C2273      C2278   1.413       .  A
C2274      C2275   1.395       .  A
C2275      C2276   1.414       .  A
C2275      C2282   1.446       .  S
C2276      C2277   1.394       .  A
C2277      C2278   1.391       .  A
C2277      H2280   1.085       .  S
C2278      C4745   1.442   1_455  S
C2281      C4742   1.442       .  S
C2281      N2283   1.157       .  T
C2282      N2284   1.157       .  T
C2285      C2286   1.399       .  A
C2285      C2290   1.408       .  A
C2286      C2287   1.405       .  A
C2286      H2291   1.085       .  S
C2287      C2288   1.421       .  A
C2287      C2294   1.444       .  S
C2288      C2289   1.404       .  A
C2289      C2290   1.389       .  A
C2289      H2292   1.084       .  S
C2290      C2293   1.445       .  S
C2293      N2295   1.157       .  T
C2294      N2296   1.157       .  T
C2297      C2298   1.399       .  A
C2297      C2302   1.406       .  A
C2298      C2299   1.402       .  A
C2298      H2303   1.084       .  S
C2299      C2300   1.418       .  A
C2299      C2306   1.443       .  S
C2300      C2301   1.410       .  A
C2301      C2302   1.401       .  A
C2301      H2304   1.084       .  S
C2302      C2305   1.444       .  S
C2305      N2307   1.157       .  T
C2306      N2308   1.157       .  T
C2309      C2310   1.409       .  A
C2309      C2314   1.410       .  A
C2310      C2311   1.417       .  A
C2310      H2315   1.085       .  S
C2311      C2312   1.420       .  A
C2311      C2318   1.443       .  S
C2312      C3765   1.520   1_455  S
C2312      C2313   1.416       .  A
C2313      C2314   1.411       .  A
C2313      H2316   1.084       .  S
C2314      C2317   1.444       .  S
C2317      N2319   1.157       .  T
C2318      N4784   1.157   1_455  T
N2320      C4782   1.157       .  T
C2321      C2322   1.408       .  A
C2321      C2326   1.415       .  A
C2322      C2323   1.394       .  A
C2322      H2327   1.085       .  S
C2323      C2324   1.408       .  A
C2323      C2330   1.444       .  S
C2324      C2325   1.404       .  A
C2325      C2326   1.395       .  A
C2325      H2328   1.086       .  S
C2326      C2329   1.445       .  S
C2329      N2331   1.158       .  T
C2330      N2332   1.157       .  T
C2333      C2334   1.404       .  A
C2333      C2338   1.411       .  A
C2334      C2335   1.399       .  A
C2334      H2339   1.084       .  S
C2335      C2336   1.409       .  A
C2335      C2342   1.444       .  S
C2336      C2337   1.401       .  A
C2337      C2338   1.392       .  A
C2337      H2340   1.086       .  S
C2338      C2341   1.446       .  S
C2341      N2343   1.157       .  T
C2342      N2344   1.157       .  T
C2345      C2346   1.390       .  A
C2345      C2350   1.436       .  A
C2346      C2347   1.405       .  A
C2346      H2351   1.086       .  S
C2347      C2348   1.434       .  A
C2347      C2354   1.437       .  S
C2348      C2349   1.383       .  A
C2349      C2350   1.395       .  A
C2349      H2352   1.084       .  S
C2350      C2353   1.436       .  S
C2353      N2355   1.158       .  T
C2354      N2356   1.156       .  T
C2357      C4822   1.421       .  A
C2357      C2362   1.406   1_655  A
C2358      C4821   1.421       .  A
C2358      C2359   1.397       .  A
C2358      H2363   1.057       .  S
C2359      C2360   1.391       .  A
C2359      C2366   1.445       .  S
C2360      C4825   1.418       .  A
C2361      C4824   1.418   1_455  A
C2361      C2362   1.398       .  A
C2361      H2364   1.082       .  S
C2362      C2365   1.445       .  S
C2365      N2367   1.157       .  T
C2366      N2368   1.157       .  T
C2369      C3956   1.493       .  S
C2369      C2370   1.409       .  A
C2369      C2374   1.419       .  A
C2370      C2371   1.408       .  A
C2370      H2375   1.084       .  S
C2371      C2372   1.410       .  A
C2371      C2378   1.444       .  S
C2372      C2373   1.401       .  A
C2373      C2374   1.401       .  A
C2373      H2376   1.086       .  S
C2374      C4841   1.445       .  S
C2377      C4838   1.445   1_455  S
C2377      N2379   1.157       .  T
C2378      N2380   1.157       .  T
C2381      C2382   1.414       .  A
C2381      C2386   1.417       .  A
C2382      C2383   1.410       .  A
C2382      H2387   1.084       .  S
C2383      C2384   1.408       .  A
C2383      C2390   1.442       .  S
C2384      C2385   1.403       .  A
C2385      C2386   1.390       .  A
C2385      H2388   1.086       .  S
C2386      C2389   1.447       .  S
C2389      N2391   1.158       .  T
C2393      C2394   1.429       .  A
C2393      C2398   1.401       .  A
C2394      C2395   1.417       .  A
C2394      H2399   1.083       .  S
C2395      C2396   1.402       .  A
C2395      C2402   1.441       .  S
C2396      C2397   1.424       .  A
C2397      C2398   1.407       .  A
C2397      H2400   1.074       .  S
C2398      C2401   1.442       .  S
C2401      N2403   1.157       .  T
C2402      N2404   1.157       .  T
C2405      C2406   1.396       .  A
C2405      C2410   1.403       .  A
C2406      C2407   1.387       .  A
C2406      H2411   1.087       .  S
C2407      C2408   1.411       .  A
C2407      C2414   1.441       .  S
C2408      C2409   1.406       .  A
C2409      C2410   1.396       .  A
C2409      H2412   1.085       .  S
C2410      C2413   1.440       .  S
C2413      N2415   1.156       .  T
C2414      N2416   1.157       .  T
C2417      C2418   1.401       .  A
C2417      C2422   1.414       .  A
C2418      C2419   1.406       .  A
C2418      H2423   1.085       .  S
C2419      C2420   1.414       .  A
C2420      C2421   1.392       .  A
C2421      C2422   1.386       .  A
C2421      H2424   1.087       .  S
C2422      C2425   1.433       .  S
C2425      N2427   1.154       .  T
C2426      N2428   1.156       .  T
C2429      C2430   1.388       .  A
C2429      C2434   1.423       .  A
C2430      C2431   1.392       .  A
C2430      H2435   1.086       .  S
C2431      C2432   1.420       .  A
C2431      C2438   1.434       .  S
C2432      C2433   1.395       .  A
C2433      C2434   1.401       .  A
C2433      H2436   1.085       .  S
C2434      C2437   1.442       .  S
C2437      N2439   1.156       .  T
C2438      N2440   1.155       .  T
C2441      C2442   1.417       .  A
C2441      C2446   1.409       .  A
C2442      C2443   1.402       .  A
C2442      H2447   1.084       .  S
C2443      C2444   1.409       .  A
C2443      C2450   1.446       .  S
C2444      C2445   1.412       .  A
C2445      C2446   1.417       .  A
C2445      H2448   1.072       .  S
C2446      C2449   1.441       .  S
C2449      N2451   1.157       .  T
C2450      N4916   1.158       .  T
N2452      C4914   1.158       .  T
C2453      C2454   1.397       .  A
C2453      C2458   1.412       .  A
C2454      H2459   1.087       .  S
C2455      C2456   1.438       .  A
C2455      C2462   1.437       .  S
C2456      C2457   1.411   1_565  A
C2457      H2460   1.083       .  S
C2458      C2461   1.428       .  S
C2461      N2463   1.153       .  T
C2462      N2464   1.158       .  T
O2465      C2473   1.264       .  A
O2465     Co2485   2.022       .  S
O2466      C2474   1.253       .  A
O2466     Co2486   1.941       .  S
O2467      C2475   1.254       .  A
O2467     Co2487   1.966       .  S
O2468      C2476   1.264       .  A
O2468     Co3720   1.938       .  S
O2469      C2475   1.263       .  A
O2469     Co2486   1.992       .  S
O2470      C2476   1.297       .  A
O2470     Co3717   2.074       .  S
O2471      C2474   1.273       .  A
O2471     Co2488   2.035       .  S
O2472      C2473   1.274       .  A
O2472     Co2487   2.019       .  S
C2473      C3685   1.509       .  S
C2474      C3604   1.479       .  S
C2475      C3640   1.461       .  S
C2476      C3673   1.510       .  S
O2477      C2490   1.245       .  A
O2477     Co3717   1.978       .  S
O2478      C2491   1.254       .  A
O2478     Co2486   1.934       .  S
O2479      C2492   1.259       .  A
O2479     Co2487   2.016       .  S
O2480      C2493   1.258       .  A
O2480     Co2488   1.975       .  S
O2481      C2493   1.262       .  A
O2481     Co2486   1.983       .  S
O2482      C2492   1.286       .  A
O2482     Co2485   2.035       .  S
O2483      C2490   1.265       .  A
O2483     Co3720   2.006       .  S
O2484      C2491   1.284       .  A
O2484     Co2487   2.040       .  S
Co2485     O3702   2.074   1_545  S
Co2485     O3709   1.978       .  S
Co2485     O2489   2.050       .  S
Co2486     O2489   2.048       .  S
Co2487     O2489   2.050       .  S
Co2488     O3700   1.938   1_545  S
Co2488     O3715   2.006   1_545  S
Co2488     O2489   2.070       .  S
C2490      C3652   1.473       .  S
C2491      C3661   1.474       .  S
C2492      C3628   1.520       .  S
C2493      C3613   1.492       .  S
O2494      C2502   1.260       .  A
O2494     Co2514   1.993       .  S
O2495      C2503   1.280       .  A
O2495     Co2515   1.987       .  S
O2496      C2504   1.269       .  A
O2496     Co2516   2.017       .  S
O2497     Co2517   2.001       .  S
O2498      C2504   1.261       .  A
O2498     Co2515   1.970       .  S
O2499      C2505   1.279       .  A
O2499     Co2514   1.930   1_655  S
O2500      C2503   1.255       .  A
O2500     Co2517   1.948       .  S
O2501     Co2516   2.016       .  S
C2502      C3676   1.504   1_455  S
C2503      C3580   1.500       .  S
C2504      C3649   1.472       .  S
C2505      C3592   1.483       .  S
O2506      C2519   1.250       .  A
O2506     Co2514   1.991   1_655  S
O2507      C2520   1.274       .  A
O2507     Co2515   2.018       .  S
O2508     Co2516   1.964       .  S
O2509      C2522   1.252       .  A
O2509     Co2517   2.011       .  S
O2510      C2522   1.239       .  A
O2510     Co2515   1.958       .  S
O2511      C2521   1.274       .  A
O2511     Co2514   2.008   1_655  S
O2512     Co2517   1.921       .  S
O2513      C2520   1.262       .  A
O2513     Co2516   1.959       .  S
Co2515     O2518   2.015       .  S
Co2516     O2518   2.079       .  S
Co2517     O2518   2.190       .  S
C2519      C3637   1.452       .  S
C2520      C3565   1.466       .  S
C2521      C3553   1.480       .  S
C2522      C3664   1.475       .  S
O2523     Co2543   2.082       .  S
O2524     Co2544   1.948       .  S
O2525      C2533   1.273       .  A
O2525     Co2545   2.059       .  S
O2526     Co3778   2.015   1_545  S
O2527      C2533   1.255   1_455  A
O2527     Co2544   2.000   1_455  S
O2528     Co3775   1.955   1_455  S
O2529     Co2546   2.065       .  S
O2530     Co2545   1.910       .  S
C2531      C3589   1.493       .  S
C2532      C3496   1.496       .  S
C2534      C3505   1.455       .  S
O2535      C2548   1.269       .  A
O2535     Co3775   2.027   1_545  S
O2536      C2549   1.278       .  A
O2536     Co2544   2.019       .  S
O2537      C2550   1.295       .  A
O2537     Co2545   2.118       .  S
O2538      C2551   1.271       .  A
O2538     Co2546   1.940       .  S
O2539      C2551   1.287       .  A
O2539     Co2544   2.080       .  S
O2540      C2550   1.236       .  A
O2540     Co2543   1.903       .  S
O2541      C2548   1.252   1_565  A
O2541     Co3778   1.979       .  S
O2542      C2549   1.271       .  A
O2542     Co2545   1.955       .  S
Co2543     O3760   1.955   1_655  S
Co2543     O3767   2.027       .  S
Co2543     O2547   2.092       .  S
Co2544     O2547   2.027       .  S
Co2545     O2547   2.042       .  S
Co2546     O3758   2.015       .  S
Co2546     O3773   1.979       .  S
Co2546     O2547   2.024       .  S
C2548      C3529   1.472       .  S
C2549      C3520   1.485       .  S
C2550      C3688   1.521       .  S
C2551      C3481   1.486       .  S
O2552      C2560   1.273       .  A
O2552     Co2572   2.103       .  S
O2553      C2561   1.269       .  A
O2553     Co2573   1.934       .  S
O2554      C2562   1.265       .  A
O2554     Co2574   2.022       .  S
O2555      C2563   1.276       .  A
O2555     Co2575   2.024       .  S
O2556      C2562   1.255       .  A
O2556     Co2573   1.989       .  S
O2557      C2563   1.265       .  A
O2557     Co2572   1.952       .  S
O2558      C2561   1.290       .  A
O2558     Co2575   2.085       .  S
O2559      C2560   1.221       .  A
O2559     Co2574   1.912       .  S
C2560      C3625   1.512       .  S
C2561      C3469   1.492       .  S
C2562      C3532   1.492       .  S
C2563      C3517   1.464       .  S
O2564      C2577   1.275       .  A
O2564     Co2572   2.056       .  S
O2565      C2578   1.275       .  A
O2565     Co2573   2.003       .  S
O2566      C2579   1.283       .  A
O2566     Co2574   2.102       .  S
O2567      C2580   1.271       .  A
O2567     Co2575   1.939       .  S
O2568      C2580   1.287       .  A
O2568     Co2573   2.076       .  S
O2569      C2579   1.232       .  A
O2569     Co2572   1.897       .  S
O2570      C2577   1.258       .  A
O2570     Co2575   2.000       .  S
O2571      C2578   1.272       .  A
O2571     Co2574   1.956       .  S
Co2572     O2576   2.068       .  S
Co2573     O2576   2.017       .  S
Co2574     O2576   2.079       .  S
Co2575     O2576   2.035       .  S
C2577      C3541   1.503       .  S
C2578      C3508   1.458       .  S
C2579      C3577   1.490       .  S
C2580      C3457   1.495       .  S
O2581      C2589   1.271       .  A
O2581     Co2601   1.939       .  S
O2582      C2590   1.277       .  A
O2582     Co2602   2.111       .  S
O2583      C2591   1.284       .  A
O2583     Co2603   2.028       .  S
O2584      C2592   1.262       .  A
O2584     Co2604   2.023       .  S
O2585      C2591   1.267       .  A
O2585     Co2602   1.939       .  S
O2586      C2592   1.252       .  A
O2586     Co2601   1.995       .  S
O2587      C2590   1.223       .  A
O2587     Co2604   1.920       .  S
O2588      C2589   1.289       .  A
O2588     Co2603   2.082       .  S
O2593      C2606   1.279       .  A
O2593     Co2601   2.020       .  S
O2594      C2607   1.264       .  A
O2594     Co2602   2.025       .  S
O2595      C2608   1.276       .  A
O2595     Co2603   1.941       .  S
O2596      C2609   1.280       .  A
O2596     Co2604   2.109       .  S
O2597      C2609   1.227       .  A
O2597     Co2602   1.923       .  S
O2598      C2608   1.288       .  A
O2598     Co2601   2.070       .  S
O2599      C2606   1.267       .  A
O2599     Co2604   1.945       .  S
O2600      C2607   1.252       .  A
O2600     Co2603   1.992       .  S
Co2601     O2605   2.009       .  S
Co2602     O2605   2.064       .  S
Co2603     O2605   2.018       .  S
Co2604     O2605   2.059       .  S
C2606      C3409   1.452       .  S
C2607      C3421   1.479       .  S
C2608      C3472   1.493       .  S
C2609      C3388   1.508       .  S
O2610      C2618   1.273       .  A
O2610     Co2630   1.949       .  S
O2611      C2619   1.276       .  A
O2611     Co2631   2.110       .  S
O2612      C2620   1.277       .  A
O2612     Co3864   2.014   1_545  S
O2613      C2621   1.264       .  A
O2613     Co2633   2.023       .  S
O2614      C2620   1.267   1_565  A
O2614     Co3863   1.955       .  S
O2615      C2621   1.252       .  A
O2615     Co2630   1.990       .  S
O2616      C2619   1.224       .  A
O2616     Co2633   1.922       .  S
O2617      C2618   1.285       .  A
O2617     Co2632   2.064       .  S
C2618      C3493   1.488       .  S
C2619      C3373   1.511       .  S
C2620      C3400   1.454       .  S
C2621      C3436   1.494       .  S
O2622      C2635   1.279       .  A
O2622     Co2630   2.016       .  S
O2623      C2636   1.270       .  A
O2623     Co3863   2.040   1_545  S
O2624      C2637   1.272       .  A
O2624     Co2632   1.939       .  S
O2625      C2638   1.282       .  A
O2625     Co2633   2.101       .  S
O2626      C2638   1.231       .  A
O2626     Co2631   1.914       .  S
O2627      C2637   1.286       .  A
O2627     Co2630   2.077       .  S
O2628      C2635   1.269       .  A
O2628     Co2633   1.946       .  S
O2629      C2636   1.257   1_565  A
O2629     Co3864   1.988       .  S
Co2630     O2634   2.020       .  S
Co2631     O3846   1.955       .  S
Co2631     O3855   2.040       .  S
Co2631     O2634   2.068       .  S
Co2632     O3844   2.014       .  S
Co2632     O3861   1.988       .  S
Co2632     O2634   2.021       .  S
Co2633     O2634   2.058       .  S
C2635      C3412   1.467       .  S
C2636      C3424   1.502       .  S
C2637      C3484   1.481       .  S
C2638      C3364   1.492       .  S
O2639      C2647   1.228       .  A
O2639     Co2659   1.917       .  S
O2640      C2648   1.291       .  A
O2640     Co2660   2.073       .  S
O2641      C2649   1.267       .  A
O2641     Co2661   1.951       .  S
O2642      C2650   1.252       .  A
O2642     Co2662   1.991       .  S
O2643      C2649   1.275       .  A
O2643     Co2660   2.010       .  S
O2644      C2650   1.263       .  A
O2644     Co2659   2.028       .  S
O2645      C2648   1.276       .  A
O2645     Co2662   1.941       .  S
O2646      C2647   1.284       .  A
O2646     Co2661   2.114       .  S
C2647      C3448   1.509       .  S
O2651      C2664   1.267       .  A
O2651     Co2659   1.931       .  S
O2652      C2665   1.252       .  A
O2652     Co2660   1.995       .  S
O2653      C2666   1.225       .  A
O2653     Co2661   1.923       .  S
O2654      C2667   1.289       .  A
O2654     Co2662   2.080       .  S
O2655      C2667   1.268       .  A
O2655     Co2660   1.935       .  S
O2656      C2666   1.275       .  A
O2656     Co2659   2.103       .  S
O2657      C2664   1.284       .  A
O2657     Co2662   2.031       .  S
O2658      C2665   1.266       .  A
O2658     Co2661   2.033       .  S
Co2659     O2663   2.059       .  S
Co2660     O2663   2.007       .  S
Co2661     O2663   2.056       .  S
Co2662     O2663   2.019       .  S
C2664      C3325   1.474       .  S
C2665      C3352   1.489       .  S
C2666      C3376   1.508       .  S
C2667      C3289   1.492       .  S
O2668      C2676   1.222       .  A
O2668     Co2688   1.920       .  S
O2669      C2677   1.287       .  A
O2669     Co2689   2.081       .  S
O2670      C3910   1.268   1_545  A
O2670     Co2690   1.939       .  S
O2671      C2679   1.256       .  A
O2671     Co2691   2.008       .  S
O2672      C3910   1.279       .  A
O2672     Co2689   2.018   1_565  S
O2673      C2679   1.262       .  A
O2673     Co2688   2.017       .  S
O2674      C2677   1.271       .  A
O2674     Co2691   1.944       .  S
O2675      C2676   1.275       .  A
O2675     Co2690   2.110       .  S
C2676      C3385   1.508       .  S
C2677      C3265   1.486       .  S
C2678      O3902   1.268       .  A
C2678      O3904   1.279       .  A
C2678      C3316   1.467       .  S
C2679      C3337   1.495       .  S
O2680      C2693   1.268       .  A
O2680     Co2688   1.942       .  S
O2681      C3926   1.253   1_545  A
O2681     Co2689   1.995       .  S
O2682      C2695   1.228       .  A
O2682     Co2690   1.915       .  S
O2683      C2696   1.288       .  A
O2683     Co2691   2.075       .  S
O2684      C2696   1.275       .  A
O2684     Co2689   1.939       .  S
O2685      C2695   1.282       .  A
O2685     Co2688   2.108       .  S
O2686      C2693   1.278       .  A
O2686     Co2691   2.018       .  S
O2687      C3926   1.266       .  A
O2687     Co2690   2.033   1_565  S
Co2688     O2692   2.047       .  S
Co2689     O2692   2.012       .  S
Co2690     O2692   2.070       .  S
Co2691     O2692   2.023       .  S
C2693      C3328   1.462       .  S
C2694      O3913   1.253       .  A
C2694      O3919   1.266       .  A
C2694      C3349   1.495       .  S
C2695      C3361   1.494       .  S
C2696      C3277   1.498       .  S
O2697      C2705   1.269       .  A
O2697     Co2717   2.052       .  S
O2698      C2706   1.234       .  A
O2698     Co2718   1.932       .  S
O2699      C2707   1.249       .  A
O2699     Co2719   1.953       .  S
O2700      C2708   1.243       .  A
O2700     Co2720   1.933       .  S
O2701      C2707   1.260       .  A
O2701     Co2718   2.022       .  S
O2702      C2708   1.257       .  A
O2702     Co2717   2.000       .  S
O2703      C2706   1.271       .  A
O2703     Co2720   2.077       .  S
O2704      C2705   1.248       .  A
O2704     Co2719   1.935       .  S
C2705      C3616   1.480       .  S
C2706      C3253   1.480       .  S
C2707      C3244   1.474       .  S
C2708      C4449   1.461   1_545  S
O2709      C2722   1.260   1_545  A
O2709     Co2717   1.887       .  S
O2710      C2723   1.252       .  A
O2710     Co2718   1.919       .  S
O2711      C2724   1.269       .  A
O2711     Co2719   2.034       .  S
O2712      C2725   1.222       .  A
O2712     Co2720   1.906       .  S
O2713      C2725   1.255       .  A
O2713     Co2718   2.060       .  S
O2714      C2724   1.255       .  A
O2714     Co2717   1.963       .  S
O2715      C2722   1.289   1_545  A
O2715     Co2720   2.092       .  S
O2716      C2723   1.273       .  A
O2716     Co2719   2.020       .  S
Co2717     O2721   2.016       .  S
Co2718     O2721   2.118       .  S
Co2719     O2721   2.073       .  S
Co2720     O2721   2.118       .  S
C2725      C3193   1.484       .  S
O2726      C2734   1.255       .  A
O2726     Co2746   1.966       .  S
O2727      C2735   1.260       .  A
O2727     Co2747   1.888       .  S
O2728      C2736   1.245       .  A
O2728     Co2748   1.919       .  S
O2729      C2737   1.262       .  A
O2729     Co2749   1.959       .  S
O2730      C2736   1.280       .  A
O2730     Co2747   2.101       .  S
O2731      C2737   1.258       .  A
O2731     Co2746   1.979       .  S
O2732      C2735   1.311       .  A
O2732     Co2749   2.128       .  S
O2733      C2734   1.261       .  A
O2733     Co2748   1.987       .  S
C2734      C3556   1.469       .  S
C2735      C3181   1.481       .  S
C2736      C3229   1.490       .  S
C2737      C3205   1.458       .  S
O2738      C2751   1.244       .  A
O2738     Co2746   1.938       .  S
O2739      C2752   1.255       .  A
O2739     Co2747   1.953       .  S
O2740      C2753   1.258       .  A
O2740     Co2748   1.965       .  S
O2741      C2754   1.267       .  A
O2741     Co2749   1.889       .  S
O2742      C2754   1.315       .  A
O2742     Co2747   2.134       .  S
O2743      C2753   1.258       .  A
O2743     Co2746   1.971       .  S
O2744      C2751   1.267       .  A
O2744     Co2749   2.085       .  S
O2745      C2752   1.260       .  A
O2745     Co2748   1.995       .  S
Co2746     O2750   2.054       .  S
Co2747     O2750   2.031       .  S
Co2748     O2750   2.080       .  S
Co2749     O2750   2.060       .  S
C2751      C3241   1.464       .  S
C2752      C3220   1.447       .  S
C2753      C3568   1.460       .  S
C2754      C3169   1.485       .  S
O2755      C2763   1.273       .  A
O2755     Co4007   2.082       .  S
O2756      C2764   1.275       .  A
O2756     Co2776   1.938       .  S
O2757      C2765   1.263       .  A
O2757     Co2777   2.021       .  S
O2758      C2766   1.276       .  A
O2758     Co2778   2.016   1_545  S
O2759      C2765   1.253       .  A
O2759     Co2776   2.002       .  S
O2760      C2766   1.264       .  A
O2760     Co2775   1.942       .  S
O2761      C2764   1.287       .  A
O2761     Co4010   2.068       .  S
O2762      C2763   1.239       .  A
O2762     Co2777   1.932       .  S
C2763      C3184   1.501       .  S
C2764      C3097   1.501       .  S
C2765      C3160   1.499       .  S
C2766      C3133   1.464       .  S
O2767      C2780   1.266       .  A
O2767     Co2775   2.030       .  S
O2768      C2781   1.281       .  A
O2768     Co2776   2.027       .  S
O2769      C2782   1.272       .  A
O2769     Co2777   2.075       .  S
O2770      C2783   1.270       .  A
O2770     Co4010   1.940       .  S
O2771      C2783   1.287       .  A
O2771     Co2776   2.082       .  S
O2772      C4014   1.230       .  A
O2772     Co2775   1.910   1_565  S
O2773      C2780   1.251       .  A
O2773     Co2778   1.994   1_545  S
O2774      C2781   1.268       .  A
O2774     Co2777   1.945       .  S
Co2775     O3987   2.082   1_545  S
Co2775     O4011   2.061   1_545  S
Co2776     O2779   2.019       .  S
Co2777     O2779   2.068       .  S
Co2778     O3993   2.068       .  S
Co2778     O4002   1.940       .  S
Co2778     O4011   2.020       .  S
O2779     Co4007   2.061       .  S
O2779     Co4010   2.020       .  S
C2782      O4004   1.230       .  A
C2782      C4428   1.482       .  S
O2784      C2792   1.275       .  A
O2784     Co2804   2.080       .  S
O2785      C2793   1.274       .  A
O2785     Co2805   1.955       .  S
O2786      C2794   1.263       .  A
O2786     Co2806   2.026       .  S
O2787      C2795   1.274       .  A
O2787     Co2807   2.005       .  S
O2788      C2794   1.253       .  A
O2788     Co2805   1.998       .  S
O2789      C2795   1.268       .  A
O2789     Co2804   1.961       .  S
O2790      C2793   1.281       .  A
O2790     Co2807   2.053       .  S
O2791      C2792   1.236       .  A
O2791     Co2806   1.924       .  S
C2792      C3172   1.499       .  S
C2793      C3085   1.490       .  S
C2794      C3157   1.483       .  S
C2795      C3136   1.451       .  S
O2796      C2809   1.267       .  A
O2796     Co2804   2.024       .  S
O2797      C2810   1.280       .  A
O2797     Co2805   2.031       .  S
O2798      C2811   1.276       .  A
O2798     Co2806   2.064       .  S
O2799      C2812   1.272       .  A
O2799     Co2807   1.936       .  S
O2800      C2812   1.286       .  A
O2800     Co2805   2.075       .  S
O2801      C2811   1.240       .  A
O2801     Co2804   1.931       .  S
O2802      C2809   1.253       .  A
O2802     Co2807   1.986       .  S
O2803      C2810   1.264       .  A
O2803     Co2806   1.944       .  S
Co2804     O2808   2.071       .  S
Co2805     O2808   2.032       .  S
Co2806     O2808   2.053       .  S
Co2807     O2808   2.022       .  S
C2809      C3148   1.482       .  S
C2810      C3121   1.470       .  S
C2811      C3256   1.479       .  S
C2812      C3073   1.480       .  S
O2813      C2821   1.274       .  A
O2813     Co2833   1.937       .  S
O2814      C2822   1.280       .  A
O2814     Co2834   2.106       .  S
O2815      C2823   1.279       .  A
O2815     Co2835   2.024       .  S
O2816      C2824   1.262       .  A
O2816     Co2836   2.022       .  S
O2817      C2823   1.266       .  A
O2817     Co2834   1.940       .  S
O2818      C2824   1.253       .  A
O2818     Co2833   1.991       .  S
O2819      C2822   1.227       .  A
O2819     Co2836   1.916       .  S
O2820      C2821   1.290       .  A
O2820     Co2835   2.075       .  S
C2821      C3088   1.490       .  S
C2822      C3001   1.493       .  S
C2823      C3028   1.481       .  S
C2824      C3040   1.491       .  S
O2825      C2838   1.280   1_655  A
O2825     Co2833   2.018       .  S
O2826      C2839   1.267       .  A
O2826     Co2834   2.032       .  S
O2827      C2840   1.272       .  A
O2827     Co2835   1.943       .  S
O2828      C2841   1.272       .  A
O2828     Co2836   2.102       .  S
O2829      C2841   1.224       .  A
O2829     Co2834   1.912       .  S
O2830      C2840   1.285       .  A
O2830     Co2833   2.071       .  S
O2831      C2838   1.269       .  A
O2831     Co2836   1.941   1_455  S
O2832      C2839   1.252   1_455  A
O2832     Co2835   1.998   1_455  S
Co2833     O2837   2.009       .  S
Co2834     O2837   2.050       .  S
Co2835     O2837   2.022       .  S
Co2836     O2837   2.070       .  S
C2841      C3064   1.506       .  S
O2842      C2850   1.289       .  A
O2842     Co2862   2.080       .  S
O2843      C2851   1.236       .  A
O2843     Co2863   1.924       .  S
O2844      C2852   1.254       .  A
O2844     Co4096   1.987       .  S
O2845      C2853   1.268       .  A
O2845     Co2865   1.943       .  S
O2846      C2852   1.268       .  A
O2846     Co4095   2.039       .  S
O2847      C2853   1.280       .  A
O2847     Co2862   2.027       .  S
O2848      C2851   1.284       .  A
O2848     Co2865   2.106       .  S
O2849      C2850   1.269       .  A
O2849     Co2864   1.938       .  S
C2850      C3280   1.480       .  S
C2851      C2944   1.501       .  S
C2852      C2977   1.490       .  S
C2853      C2965   1.466       .  S
O2854      C2867   1.252       .  A
O2854     Co2862   2.006       .  S
O2855      C2868   1.263       .  A
O2855     Co4095   1.946       .  S
O2856      C2869   1.288       .  A
O2856     Co2864   2.084       .  S
O2857      C2870   1.226       .  A
O2857     Co2865   1.920       .  S
O2858      C2870   1.278       .  A
O2858     Co2863   2.100       .  S
O2859      C2869   1.272       .  A
O2859     Co2862   1.944       .  S
O2860      C2867   1.265       .  A
O2860     Co2865   2.034       .  S
O2861      C2868   1.272       .  A
O2861     Co4096   1.998       .  S
Co2862     O2866   2.032       .  S
Co2863     O4078   2.039   1_545  S
Co2863     O4087   1.946       .  S
Co2863     O2866   2.076       .  S
Co2864     O4076   1.987       .  S
Co2864     O4093   1.998       .  S
Co2864     O2866   2.015       .  S
Co2865     O2866   2.044       .  S
C2870      C3061   1.505       .  S
O2871      C2879   1.270       .  A
O2871     Co2891   1.951       .  S
O2872      C2880   1.277       .  A
O2872     Co2892   2.115       .  S
O2873      C2881   1.279       .  A
O2873     Co4125   2.018   1_545  S
O2874      C2882   1.262       .  A
O2874     Co2894   2.028       .  S
O2875      C2881   1.268       .  A
O2875     Co4124   1.952   1_545  S
O2876      C2882   1.250       .  A
O2876     Co2891   1.990       .  S
O2877      C2880   1.222       .  A
O2877     Co2894   1.920       .  S
O2878      C2879   1.285       .  A
O2878     Co2893   2.074       .  S
C2879      C3100   1.489       .  S
C2880      C2929   1.516       .  S
C2881      C3025   1.461       .  S
C2882      C3037   1.476       .  S
O2883      C2896   1.278       .  A
O2883     Co2891   2.017       .  S
O2884      C2897   1.271       .  A
O2884     Co4124   2.034   1_545  S
O2885      C2898   1.275       .  A
O2885     Co2893   1.942       .  S
O2886      C2899   1.287       .  A
O2886     Co2894   2.107       .  S
O2887      C2899   1.238       .  A
O2887     Co2892   1.924       .  S
O2888      C2898   1.284       .  A
O2888     Co2891   2.065       .  S
O2889      C2896   1.268       .  A
O2889     Co2894   1.947       .  S
O2890      C2897   1.256       .  A
O2890     Co4125   1.988   1_545  S
Co2891     O2895   2.017       .  S
Co2892     O4107   1.952       .  S
Co2892     O4116   2.034       .  S
Co2892     O2895   2.072       .  S
Co2893     O4105   2.018       .  S
Co2893     O4122   1.988       .  S
Co2893     O2895   2.040       .  S
Co2894     O2895   2.054       .  S
C2896      C3013   1.451       .  S
C2897      C3052   1.493       .  S
C2898      C3109   1.484       .  S
C2899      C2941   1.501       .  S
O2900      C2908   1.288       .  A
O2900     Co2920   2.071       .  S
O2901      C2909   1.225       .  A
O2901     Co2921   1.922       .  S
O2902      C2910   1.255       .  A
O2902     Co2922   1.998       .  S
O2903      C2911   1.261       .  A
O2903     Co2923   1.930       .  S
O2904      C2910   1.265       .  A
O2904     Co2921   2.025       .  S
O2905      C2911   1.285       .  A
O2905     Co2920   2.045       .  S
O2906      C2909   1.280       .  A
O2906     Co2923   2.121       .  S
O2907      C2908   1.271       .  A
O2907     Co2922   1.935       .  S
C2908      C3292   1.483       .  S
C2909      C2932   1.515       .  S
C2910      C2980   1.492       .  S
C2911      C2968   1.478       .  S
O2912      C2925   1.251       .  A
O2912     Co2920   1.991       .  S
O2913      C2926   1.266       .  A
O2913     Co2921   1.929       .  S
O2914      C2927   1.291       .  A
O2914     Co2922   2.081       .  S
O2915      C2928   1.226       .  A
O2915     Co2923   1.915       .  S
O2916      C2928   1.281       .  A
O2916     Co2921   2.108       .  S
O2917      C2927   1.275       .  A
O2917     Co2920   1.942       .  S
O2918      C2925   1.267       .  A
O2918     Co2923   2.045       .  S
O2919      C2926   1.278       .  A
O2919     Co2922   2.017       .  S
Co2920     O2924   2.022       .  S
Co2921     O2924   2.054       .  S
Co2922     O2924   2.014       .  S
Co2923     O2924   2.053       .  S
C2925      C2989   1.500       .  S
C2926      C2953   1.469       .  S
C2927      C3301   1.501       .  S
C2928      C3004   1.494       .  S
C2929      C2930   1.428       .  A
C2929      C2934   1.402       .  A
C2930      C2931   1.412       .  A
C2930      H2935   1.084       .  S
C2931      C2932   1.404       .  A
C2931      C2938   1.443       .  S
C2932      C2933   1.428       .  A
C2933      C2934   1.411       .  A
C2933      H2936   1.084       .  S
C2934      C2937   1.442       .  S
C2937      N2939   1.157       .  T
C2938      N2940   1.157       .  T
C2941      C2942   1.403       .  A
C2941      C4178   1.421       .  A
C2942      C2943   1.412       .  A
C2942      H2947   1.081       .  S
C2943      C4176   1.418       .  A
C2943      C2950   1.441       .  S
C2944      C4175   1.418       .  A
C2944      C2945   1.406       .  A
C2945      C2946   1.416       .  A
C2945      H2948   1.082       .  S
C2946      C4173   1.421   1_545  A
C2946      C2949   1.444       .  S
C2949      N2951   1.157       .  T
C2950      N2952   1.156       .  T
C2953      C2954   1.405       .  A
C2953      C2958   1.418       .  A
C2954      C2955   1.382       .  A
C2954      H2959   1.085       .  S
C2955      C2956   1.402       .  A
C2955      C2962   1.447       .  S
C2956      C2957   1.396       .  A
C2957      C2958   1.397       .  A
C2957      H2960   1.085       .  S
C2958      C2961   1.445       .  S
C2961      N2963   1.158       .  T
C2965      C2966   1.396       .  A
C2965      C2970   1.409       .  A
C2966      C2967   1.383       .  A
C2966      H2971   1.086       .  S
C2967      C2968   1.421       .  A
C2967      C2974   1.448       .  S
C2968      C2969   1.407       .  A
C2969      C2970   1.405       .  A
C2969      H2972   1.083       .  S
C2970      C2973   1.442       .  S
C2973      N2975   1.157       .  T
C2974      N2976   1.158       .  T
C2977      C2978   1.407       .  A
C2977      C2982   1.412       .  A
C2978      C2979   1.404       .  A
C2978      H4215   1.085       .  S
C2979      C2980   1.412       .  A
C2979      C2986   1.444       .  S
C2980      C2981   1.409       .  A
C2981      C2982   1.408       .  A
C2981      H2984   1.084       .  S
C2982      C2985   1.443       .  S
H2983      C4210   1.085   1_545  S
C2985      N2987   1.157       .  T
C2986      N2988   1.157       .  T
C2989      C2990   1.411       .  A
C2989      C2994   1.414       .  A
C2990      C2991   1.408       .  A
C2990      H2995   1.084       .  S
C2991      C2992   1.411       .  A
C2992      C2993   1.409       .  A
C2993      C2994   1.409       .  A
C2993      H2996   1.085       .  S
C2994      C2997   1.444       .  S
C2997      N2999   1.157       .  T
C2998      N3000   1.157       .  T
C3001      C3002   1.389       .  A
C3001      C3006   1.434       .  A
C3002      C3003   1.404       .  A
C3002      H3007   1.085       .  S
C3003      C3004   1.434       .  A
C3003      C3010   1.443       .  S
C3004      C3005   1.390       .  A
C3005      C3006   1.404       .  A
C3005      H3008   1.085       .  S
C3006      C3009   1.444       .  S
C3009      N3011   1.157       .  T
C3010      N3012   1.157       .  T
C3013      C3014   1.397       .  A
C3013      C3018   1.407       .  A
C3014      C3015   1.397       .  A
C3014      H3019   1.085       .  S
C3015      C3016   1.416       .  A
C3016      C3017   1.402       .  A
C3017      C3018   1.388       .  A
C3017      H3020   1.085       .  S
C3018      C3021   1.445       .  S
C3021      N3023   1.157       .  T
C3022      N3024   1.157       .  T
C3025      C3026   1.401       .  A
C3025      C3030   1.407       .  A
C3026      C3027   1.404       .  A
C3026      H3031   1.085       .  S
C3027      C3028   1.418       .  A
C3027      C3034   1.443       .  S
C3028      C3029   1.406       .  A
C3029      C3030   1.385       .  A
C3029      H3032   1.084       .  S
C3030      C3033   1.448       .  S
C3033      N3035   1.158       .  T
C3034      N3036   1.157       .  T
C3037      C3038   1.403       .  A
C3037      C3042   1.407       .  A
C3038      C3039   1.403       .  A
C3038      H3043   1.085       .  S
C3039      C3040   1.416       .  A
C3039      C3046   1.444       .  S
C3040      C3041   1.410       .  A
C3041      C3042   1.401       .  A
C3041      H3044   1.084       .  S
C3042      C3045   1.444       .  S
C3045      N3047   1.157       .  T
C3046      N3048   1.157       .  T
C3049      C3050   1.402       .  A
C3049      C3054   1.418       .  A
C3050      C3051   1.405       .  A
C3050      H3055   1.085       .  S
C3051      C3052   1.416       .  A
C3051      C3058   1.439       .  S
C3052      C3053   1.400       .  A
C3053      C3054   1.404       .  A
C3053      H3056   1.085       .  S
C3054      C3057   1.437       .  S
C3057      N3059   1.156       .  T
C3058      N3060   1.156       .  T
C3061      C3066   1.401       .  A
C3062      C3063   1.407   1_455  A
C3062      H3067   1.084       .  S
C3063      C3064   1.401       .  A
C3063      C3070   1.443   1_655  S
C3065      C3066   1.406       .  A
C3065      H3068   1.084       .  S
C3066      C3069   1.443       .  S
C3069      N3071   1.157       .  T
C3070      N3072   1.157       .  T
C3073      C3074   1.399       .  A
C3073      C3078   1.416       .  A
C3074      C3075   1.401       .  A
C3074      H3079   1.085       .  S
C3075      C3076   1.417       .  A
C3075      C3082   1.444       .  S
C3076      C3077   1.401       .  A
C3077      C3078   1.404       .  A
C3078      C3081   1.444       .  S
C3081      N3083   1.157       .  T
C3082      N3084   1.157       .  T
C3085      C3086   1.405       .  A
C3085      C3090   1.418       .  A
C3086      C3087   1.410       .  A
C3086      H3091   1.084       .  S
C3087      C3088   1.415       .  A
C3087      C3094   1.437       .  S
C3088      C3089   1.401       .  A
C3089      C3090   1.398       .  A
C3089      H3092   1.084       .  S
C3090      C3093   1.446       .  S
C3093      N3095   1.157       .  T
C3094      N3096   1.155       .  T
C3097      C3098   1.408       .  A
C3097      C3102   1.415       .  A
C3098      C3099   1.400       .  A
C3098      H4335   1.085       .  S
C3099      C3100   1.411       .  A
C3099      C4338   1.445       .  S
C3100      C3101   1.409       .  A
C3101      C3102   1.414       .  A
C3101      H3104   1.084       .  S
C3102      C3105   1.441       .  S
H3103      C4330   1.085       .  S
C3105      N3107   1.157       .  T
C3106      C4331   1.445       .  S
C3106      N3108   1.157   1_565  T
C3109      C3110   1.401       .  A
C3109      C3114   1.417       .  A
C3110      C3111   1.405       .  A
C3110      H3115   1.085       .  S
C3111      C3112   1.416       .  A
C3111      C3118   1.443       .  S
C3112      C3113   1.400       .  A
C3113      C3114   1.403       .  A
C3114      C3117   1.445       .  S
C3117      N3119   1.157       .  T
C3118      N3120   1.157       .  T
C3121      C3122   1.404       .  A
C3121      C3126   1.412       .  A
C3122      C3123   1.405       .  A
C3122      H3127   1.084       .  S
C3123      C3124   1.415       .  A
C3123      C3130   1.444       .  S
C3124      C3125   1.403       .  A
C3125      C3126   1.387       .  A
C3125      H3128   1.085       .  S
C3126      C3129   1.448       .  S
C3129      N3131   1.158       .  T
C3130      N3132   1.157       .  T
C3133      C3134   1.405       .  A
C3133      C3138   1.413       .  A
C3134      C3135   1.398       .  A
C3134      H3139   1.085       .  S
C3135      C3136   1.405       .  A
C3135      C3142   1.443       .  S
C3136      C3137   1.396       .  A
C3137      C3138   1.389       .  A
C3137      H3140   1.086       .  S
C3138      C3141   1.445       .  S
C3141      N3143   1.157   1_545  T
C3142      N3144   1.157       .  T
C3145      C3146   1.404       .  A
C3145      C3150   1.415       .  A
C3146      C3147   1.405       .  A
C3146      H3151   1.085       .  S
C3147      C3148   1.413       .  A
C3147      C3154   1.440       .  S
C3148      C3149   1.396       .  A
C3149      C3150   1.400       .  A
C3149      H3152   1.085       .  S
C3150      C3153   1.435       .  S
C3153      N3155   1.155       .  T
C3154      N3156   1.156       .  T
C3157      C3158   1.399       .  A
C3157      C3162   1.411       .  A
C3158      C3159   1.404       .  A
C3158      H3163   1.085       .  S
C3159      C3160   1.421       .  A
C3159      C3166   1.441       .  S
C3160      C3161   1.408       .  A
C3161      C3162   1.406       .  A
C3161      H3164   1.085       .  S
C3162      C3165   1.444       .  S
C3165      N3167   1.157       .  T
C3166      N3168   1.156       .  T
C3169      C3170   1.416       .  A
C3169      C3174   1.400       .  A
C3170      C3171   1.410       .  A
C3170      H3175   1.085       .  S
C3171      C3172   1.406       .  A
C3171      C3178   1.442       .  S
C3172      C3173   1.420       .  A
C3173      C3174   1.401       .  A
C3173      H3176   1.085       .  S
C3174      C3177   1.444       .  S
C3177      N3179   1.157       .  T
C3178      N3180   1.157       .  T
C3181      C3182   1.414       .  A
C3181      C3186   1.403       .  A
C3182      C3183   1.410       .  A
C3182      H3187   1.084       .  S
C3183      C3184   1.410       .  A
C3183      C3190   1.442       .  S
C3184      C3185   1.418       .  A
C3185      C3186   1.399       .  A
C3185      H3188   1.084       .  S
C3186      C3189   1.444       .  S
C3189      N3191   1.157       .  T
C3190      N3192   1.157       .  T
C3193      C3194   1.390       .  A
C3194      H3199   1.085       .  S
C3195      C3196   1.430       .  A
C3196      C4014   1.482   1_545  S
C3196      C3197   1.387   1_645  A
C3197      C3198   1.399   1_565  A
C3197      H4432   1.085       .  S
C3198      C3201   1.439       .  S
H3200      C4429   1.085       .  S
C3201      N3203   1.157   1_545  T
C3202      N3204   1.157       .  T
C3205      C3206   1.398       .  A
C3205      C3210   1.421       .  A
C3206      C3207   1.386       .  A
C3206      H3211   1.085       .  S
C3207      C3208   1.410       .  A
C3207      C3214   1.447       .  S
C3208      C3209   1.390       .  A
C3209      C3210   1.390       .  A
C3209      H3212   1.086       .  S
C3210      C3213   1.446       .  S
C3213      N3215   1.157       .  T
C3214      N3216   1.157   1_655  T
C3217      C3940   1.461       .  S
C3217      C3218   1.404       .  A
C3217      C3222   1.411       .  A
C3218      C3219   1.387       .  A
C3218      H3223   1.085       .  S
C3219      C3220   1.402       .  A
C3219      C3226   1.444       .  S
C3220      C3221   1.400       .  A
C3221      C3222   1.396       .  A
C3221      H3224   1.085       .  S
C3222      C4457   1.444       .  S
C3225      C4454   1.444   1_545  S
C3225      N3227   1.157       .  T
C3226      N3228   1.157       .  T
C3229      C3230   1.396       .  A
C3229      C3234   1.424       .  A
C3230      C3231   1.399       .  A
C3230      H3235   1.083       .  S
C3231      C3232   1.420       .  A
C3231      C3238   1.440       .  S
C3232      C3233   1.394       .  A
C3233      C3234   1.399       .  A
C3233      H3236   1.086   1_655  S
C3234      C3237   1.438       .  S
C3237      N3239   1.155       .  T
C3238      N4472   1.156       .  T
N3240      C4470   1.156       .  T
C3241      C3242   1.405       .  A
C3241      C3246   1.405       .  A
C3242      C3243   1.402       .  A
C3242      H3247   1.085       .  S
C3243      C3244   1.410       .  A
C3243      C3250   1.444       .  S
C3244      C3245   1.405       .  A
C3245      C3246   1.394       .  A
C3245      H3248   1.085       .  S
C3246      C3249   1.445       .  S
C3249      N3251   1.157       .  T
C3250      N3252   1.157       .  T
C3253      C3254   1.405       .  A
C3253      C3258   1.413       .  A
C3254      C3255   1.406       .  A
C3254      H3259   1.084       .  S
C3255      C3256   1.415       .  A
C3255      C3262   1.444       .  S
C3256      C3257   1.403       .  A
C3257      C3258   1.402       .  A
C3257      H3260   1.082       .  S
C3258      C3261   1.443       .  S
C3261      N3263   1.157       .  T
C3262      N3264   1.157       .  T
C3265      C3266   1.407       .  A
C3265      C3270   1.409       .  A
C3266      C3267   1.405       .  A
C3266      H3271   1.084       .  S
C3267      C3268   1.409       .  A
C3268      C3269   1.408       .  A
C3269      C3270   1.407       .  A
C3269      H3272   1.085       .  S
C3270      C3273   1.443       .  S
C3273      N3275   1.157       .  T
C3274      N3276   1.157       .  T
C3277      C3278   1.407       .  A
C3277      C3282   1.421       .  A
C3278      C3279   1.408       .  A
C3278      H3283   1.084   1_545  S
C3279      C3280   1.411       .  A
C3279      C3286   1.437   1_545  S
C3280      C3281   1.393       .  A
C3281      C3282   1.397       .  A
C3281      H3284   1.085       .  S
C3282      C3285   1.438       .  S
C3285      N3287   1.155       .  T
C3286      N3288   1.156       .  T
C3289      C3290   1.403       .  A
C3289      C3294   1.417       .  A
C3290      C3291   1.395       .  A
C3290      H3295   1.081       .  S
C3291      C3292   1.411       .  A
C3291      C3298   1.445       .  S
C3292      C3293   1.406       .  A
C3293      C3294   1.410       .  A
C3293      H3296   1.084       .  S
C3294      C3297   1.443       .  S
C3297      N3299   1.157       .  T
C3298      N3300   1.157       .  T
C3301      C3302   1.411       .  A
C3301      C3306   1.417       .  A
C3302      C3303   1.415       .  A
C3302      H3307   1.084       .  S
C3303      C3304   1.416       .  A
C3303      C3310   1.443       .  S
C3304      C3305   1.401       .  A
C3305      C3306   1.398       .  A
C3305      H3308   1.086       .  S
C3306      C3309   1.440       .  S
C3309      N3311   1.155       .  T
C3310      N3312   1.157       .  T
C3313      C3314   1.399       .  A
C3313      C3318   1.406       .  A
C3314      C3315   1.399       .  A
C3314      H3319   1.085       .  S
C3315      C3316   1.416       .  A
C3315      C3322   1.445       .  S
C3316      C3317   1.402       .  A
C3317      C3318   1.387       .  A
C3317      H3320   1.085       .  S
C3321      N3323   1.157       .  T
C3322      N3324   1.157       .  T
C3325      C3326   1.407       .  A
C3325      C3330   1.414       .  A
C3326      C3327   1.384       .  A
C3326      H3331   1.085       .  S
C3327      C3328   1.407       .  A
C3327      C3334   1.448       .  S
C3328      C3329   1.402       .  A
C3329      C3330   1.399       .  A
C3329      H3332   1.085       .  S
C3330      C3333   1.443       .  S
C3333      N3335   1.157       .  T
C3334      N3336   1.158       .  T
C3337      C3338   1.410       .  A
C3337      C3342   1.417       .  A
C3338      C3339   1.406       .  A
C3338      H3343   1.083       .  S
C3339      C3340   1.408       .  A
C3339      C3346   1.444   1_655  S
C3340      C3341   1.403       .  A
C3341      C3342   1.403       .  A
C3341      H3344   1.085       .  S
C3342      C3345   1.444       .  S
C3345      N3347   1.157       .  T
C3349      C3350   1.405       .  A
C3349      C3354   1.419       .  A
C3350      C3351   1.407       .  A
C3350      H3355   1.085       .  S
C3351      C3352   1.416       .  A
C3351      C3358   1.444       .  S
C3352      C3353   1.400       .  A
C3353      C3354   1.403       .  A
C3353      H3356   1.084       .  S
C3354      C4589   1.442       .  S
C3357      C4586   1.442   1_545  S
C3357      N3359   1.156       .  T
C3358      N3360   1.157       .  T
C3361      C3362   1.393   1_556  A
C3361      C3366   1.433   1_545  A
C3362      C4595   1.406       .  A
C3362      H3367   1.085       .  S
C3363      C4594   1.406       .  A
C3363      C3364   1.430       .  A
C3363      C3370   1.445       .  S
C3364      C3365   1.391       .  A
C3365      C4598   1.406   1_554  A
C3365      H3368   1.085       .  S
C3366      C4597   1.406   1_556  A
C3366      C3369   1.445       .  S
C3369      N3371   1.158       .  T
C3370      N3372   1.158       .  T
C3373      C3374   1.427       .  A
C3373      C3378   1.405       .  A
C3374      C3375   1.409       .  A
C3374      H3379   1.084       .  S
C3375      C3376   1.404   1_554  A
C3375      C3382   1.443       .  S
C3376      C3377   1.424       .  A
C3377      C3378   1.407   1_556  A
C3377      H3380   1.084       .  S
C3378      C3381   1.441       .  S
C3381      N3383   1.157       .  T
C3382      N3384   1.157       .  T
C3385      C3386   1.427       .  A
C3385      C3390   1.403   1_556  A
C3386      C3387   1.408   1_556  A
C3386      H3391   1.084       .  S
C3387      C3388   1.403       .  A
C3387      C3394   1.443       .  S
C3388      C3389   1.426       .  A
C3389      C3390   1.407       .  A
C3389      H3392   1.084       .  S
C3390      C3393   1.443       .  S
C3393      N3395   1.157       .  T
C3394      N3396   1.157   1_554  T
C3397      C3398   1.405       .  A
C3397      C3402   1.417       .  A
C3398      C3399   1.398       .  A
C3399      C3400   1.404       .  A
C3399      C4638   1.439   1_545  S
C3400      C3401   1.394       .  A
C3401      C3402   1.389       .  A
C3401      H3404   1.087       .  S
C3402      C3405   1.442       .  S
C3405      N3407   1.156       .  T
C3406      C4631   1.439       .  S
C3406      N3408   1.156       .  T
C3409      C3410   1.397       .  A
C3409      C3414   1.407       .  A
C3410      C3411   1.397       .  A
C3410      H3415   1.085       .  S
C3411      C3412   1.416       .  A
C3411      C3418   1.445       .  S
C3412      C3413   1.402       .  A
C3413      C3414   1.391       .  A
C3413      H3416   1.085       .  S
C3414      C3417   1.446       .  S
C3417      N3419   1.157       .  T
C3418      N3420   1.157       .  T
C3421      C3422   1.401       .  A
C3421      C3426   1.406       .  A
C3422      C3423   1.407       .  A
C3422      H3427   1.085       .  S
C3423      C3424   1.418       .  A
C3423      C3430   1.439       .  S
C3424      C3425   1.411       .  A
C3425      C3426   1.404       .  A
C3425      H3428   1.080       .  S
C3426      C3429   1.444       .  S
C3429      N3431   1.157       .  T
C3430      N3432   1.156       .  T
C3433      C3434   1.397       .  A
C3433      C3438   1.409       .  A
C3434      C3435   1.401       .  A
C3434      H3439   1.085       .  S
C3435      C3436   1.421       .  A
C3435      C3442   1.440       .  S
C3436      C3437   1.405       .  A
C3437      C3438   1.402       .  A
C3437      H3440   1.085       .  S
C3438      C3441   1.439       .  S
C3441      N3443   1.155       .  T
C3442      N3444   1.156       .  T
C3445      C3446   1.427       .  A
C3446      C3447   1.408       .  A
C3446      H3451   1.084       .  S
C3447      C3448   1.403   1_554  A
C3447      C3454   1.443       .  S
C3449      C3450   1.408   1_556  A
C3449      H3452   1.084       .  S
C3450      C3453   1.443       .  S
C3453      N3455   1.157   1_554  T
C3454      N3456   1.157       .  T
C3457      C3458   1.405       .  A
C3457      C3462   1.413       .  A
C3458      C3459   1.401       .  A
C3458      H3463   1.085       .  S
C3459      C3460   1.417       .  A
C3459      C3466   1.445       .  S
C3460      C3461   1.409       .  A
C3461      C3462   1.411       .  A
C3461      H3464   1.084       .  S
C3462      C3465   1.441       .  S
C3465      N3467   1.156       .  T
C3466      N3468   1.157       .  T
C3469      C3470   1.403       .  A
C3469      C3474   1.417       .  A
C3470      C3471   1.400       .  A
C3470      H3475   1.085       .  S
C3471      C3472   1.417       .  A
C3471      C3478   1.445       .  S
C3472      C3473   1.407       .  A
C3473      C3474   1.410       .  A
C3473      H3476   1.084       .  S
C3474      C3477   1.444       .  S
C3477      N3479   1.157       .  T
C3478      N3480   1.157       .  T
C3481      C3482   1.408       .  A
C3481      C3486   1.411       .  A
C3482      C3483   1.405       .  A
C3482      H3487   1.085       .  S
C3483      C3484   1.408       .  A
C3483      C3490   1.445       .  S
C3484      C3485   1.406       .  A
C3485      C3486   1.405       .  A
C3485      H3488   1.084       .  S
C3486      C3489   1.444       .  S
C3489      N3491   1.157       .  T
C3490      N3492   1.157       .  T
C3493      C3494   1.407       .  A
C3493      C3498   1.412       .  A
C3494      C3495   1.414       .  A
C3494      H3499   1.084       .  S
C3495      C3496   1.416       .  A
C3495      C3502   1.442       .  S
C3496      C3497   1.406       .  A
C3497      C3498   1.396       .  A
C3497      H3500   1.085       .  S
C3498      C3501   1.446       .  S
C3501      N4735   1.157       .  T
C3502      N3504   1.157       .  T
N3503      C4733   1.157   1_545  T
C3505      C3506   1.397       .  A
C3505      C3510   1.413       .  A
C3506      C3507   1.395       .  A
C3506      H4743   1.085       .  S
C3507      C3508   1.414       .  A
C3507      C3514   1.446       .  S
C3508      C3509   1.394       .  A
C3509      C3510   1.391       .  A
C3509      H3512   1.085       .  S
H3511      C4738   1.085       .  S
C3513      N3515   1.157       .  T
C3514      N3516   1.157       .  T
C3517      C3518   1.399       .  A
C3517      C3522   1.408       .  A
C3518      C3519   1.405       .  A
C3518      H3523   1.085       .  S
C3519      C3520   1.421       .  A
C3519      C3526   1.444       .  S
C3520      C3521   1.404       .  A
C3521      C3522   1.389       .  A
C3521      H3524   1.084       .  S
C3522      C3525   1.445       .  S
C3525      N3527   1.157       .  T
C3526      N3528   1.157       .  T
C3529      C3530   1.399       .  A
C3529      C3534   1.406       .  A
C3530      C3531   1.402       .  A
C3530      H3535   1.084       .  S
C3531      C3532   1.418       .  A
C3531      C3538   1.443       .  S
C3532      C3533   1.410       .  A
C3533      C3534   1.402       .  A
C3533      H3536   1.084       .  S
C3534      C3537   1.444       .  S
C3537      N3539   1.157       .  T
C3538      N3540   1.157       .  T
C3541      C3542   1.409       .  A
C3541      C3546   1.410       .  A
C3542      C3543   1.417       .  A
C3542      H3547   1.085       .  S
C3543      C3544   1.420       .  A
C3543      C3550   1.443       .  S
C3544      C3545   1.416       .  A
C3545      C3546   1.411       .  A
C3545      H3548   1.084       .  S
C3546      C3549   1.444       .  S
C3549      N3551   1.157       .  T
C3553      C3554   1.408       .  A
C3553      C3558   1.415       .  A
C3554      C3555   1.394       .  A
C3554      H3559   1.085       .  S
C3555      C3556   1.408       .  A
C3555      C3562   1.444       .  S
C3556      C3557   1.404       .  A
C3557      C3558   1.395       .  A
C3557      H3560   1.086       .  S
C3558      C3561   1.445       .  S
C3561      N3563   1.158       .  T
C3562      N3564   1.157       .  T
C3565      C3566   1.404       .  A
C3565      C3570   1.411       .  A
C3566      C3567   1.399       .  A
C3566      H3571   1.084       .  S
C3567      C3568   1.409       .  A
C3567      C3574   1.444       .  S
C3568      C3569   1.401       .  A
C3569      C3570   1.392       .  A
C3569      H3572   1.086       .  S
C3570      C3573   1.446       .  S
C3573      N3575   1.157       .  T
C3574      N3576   1.157       .  T
C3577      C3578   1.390       .  A
C3577      C3582   1.436       .  A
C3578      C3579   1.405       .  A
C3578      H3583   1.086       .  S
C3579      C3580   1.434       .  A
C3579      C3586   1.437       .  S
C3580      C3581   1.383       .  A
C3581      C3582   1.395       .  A
C3581      H3584   1.084       .  S
C3582      C3585   1.436       .  S
C3585      N3587   1.158       .  T
C3586      N3588   1.156       .  T
C3589      C3594   1.406       .  A
C3590      C3591   1.397       .  A
C3590      H3595   1.057       .  S
C3591      C3592   1.391       .  A
C3591      C3598   1.445       .  S
C3593      C3594   1.398       .  A
C3593      H3596   1.082       .  S
C3594      C3597   1.445       .  S
C3597      N3599   1.157       .  T
C3598      N3600   1.157       .  T
C3601      C3602   1.409       .  A
C3601      C3606   1.419       .  A
C3602      C3603   1.408       .  A
C3602      H3607   1.084       .  S
C3603      C3604   1.410       .  A
C3603      C3610   1.444       .  S
C3604      C3605   1.401       .  A
C3605      C3606   1.401       .  A
C3605      H3608   1.086       .  S
C3609      N3611   1.157       .  T
C3610      N3612   1.157       .  T
C3613      C3614   1.414       .  A
C3613      C3618   1.417       .  A
C3614      C3615   1.410       .  A
C3614      H3619   1.084       .  S
C3615      C3616   1.408       .  A
C3615      C3622   1.442   1_545  S
C3616      C3617   1.403       .  A
C3617      C3618   1.390       .  A
C3617      H3620   1.086       .  S
C3618      C3621   1.447       .  S
C3621      N3623   1.158       .  T
C3622      N4856   1.157       .  T
N3624      C4854   1.157       .  T
C3625      C3626   1.429       .  A
C3625      C3630   1.401       .  A
C3626      C3627   1.417       .  A
C3626      H3631   1.083       .  S
C3627      C3628   1.402       .  A
C3627      C3634   1.441       .  S
C3628      C3629   1.424       .  A
C3629      C3630   1.407       .  A
C3629      H3632   1.074       .  S
C3630      C3633   1.442       .  S
C3633      N3635   1.157       .  T
C3634      N3636   1.157       .  T
C3637      C3638   1.396       .  A
C3637      C3642   1.403       .  A
C3638      C3639   1.387       .  A
C3638      H3643   1.087       .  S
C3639      C3640   1.411       .  A
C3639      C3646   1.441       .  S
C3640      C3641   1.406       .  A
C3641      C3642   1.396       .  A
C3641      H3644   1.085       .  S
C3642      C3645   1.440       .  S
C3645      N3647   1.156       .  T
C3646      N3648   1.157       .  T
C3649      C3650   1.401       .  A
C3649      C3654   1.414       .  A
C3650      C3651   1.406       .  A
C3650      H3655   1.085       .  S
C3651      C3652   1.414       .  A
C3651      C4890   1.438       .  S
C3652      C3653   1.392       .  A
C3653      C3654   1.386       .  A
C3653      H3656   1.087       .  S
C3654      C3657   1.433       .  S
C3657      N3659   1.154       .  T
C3658      C4883   1.438   1_545  S
C3658      N3660   1.156       .  T
C3661      C3662   1.388       .  A
C3661      C3666   1.423       .  A
C3662      C3663   1.393       .  A
C3662      H3667   1.086       .  S
C3663      C3664   1.420       .  A
C3663      C3670   1.434       .  S
C3664      C3665   1.395       .  A
C3665      C3666   1.401       .  A
C3665      H3668   1.085       .  S
C3666      C3669   1.442       .  S
C3669      N3671   1.156       .  T
C3670      N3672   1.155       .  T
C3673      C3674   1.417       .  A
C3673      C3678   1.409       .  A
C3674      C3675   1.402       .  A
C3674      H3679   1.084       .  S
C3675      C3676   1.409       .  A
C3675      C3682   1.446   1_655  S
C3676      C3677   1.412       .  A
C3677      C3678   1.417       .  A
C3677      H3680   1.072       .  S
C3678      C3681   1.441       .  S
C3681      N3683   1.157       .  T
C3685      C3686   1.397       .  A
C3685      C3690   1.412       .  A
C3686      C4919   1.408   1_545  A
C3686      H3691   1.087       .  S
C3687      C4918   1.408       .  A
C3687      C3688   1.438       .  A
C3687      C3694   1.437       .  S
C3688      C3689   1.411       .  A
C3689      C4922   1.416       .  A
C3689      H3692   1.083       .  S
C3690      C4921   1.416       .  A
C3690      C3693   1.428       .  S
C3693      N3695   1.153       .  T
C3694      N3696   1.158       .  T
O3697      C3705   1.264       .  A
O3697     Co3717   2.022       .  S
O3698      C3706   1.253       .  A
O3698     Co3718   1.941       .  S
O3699      C3707   1.254       .  A
O3699     Co3719   1.966       .  S
O3700      C3708   1.265       .  A
O3701      C3707   1.263       .  A
O3701     Co3718   1.992       .  S
O3702      C3708   1.297       .  A
O3703      C3706   1.273       .  A
O3703     Co3720   2.035       .  S
O3704      C3705   1.274       .  A
O3704     Co3719   2.019       .  S
C3705      C4917   1.509       .  S
C3706      C4836   1.479       .  S
C3707      C4872   1.461       .  S
C3708      C4905   1.510       .  S
O3709      C3722   1.245   1_545  A
O3710      C3723   1.254       .  A
O3710     Co3718   1.934       .  S
O3711      C3724   1.259       .  A
O3711     Co3719   2.016       .  S
O3712      C3725   1.258       .  A
O3712     Co3720   1.975       .  S
O3713      C3725   1.262       .  A
O3713     Co3718   1.983       .  S
O3714      C3724   1.286       .  A
O3714     Co3717   2.035       .  S
O3715      C3722   1.265       .  A
O3716      C3723   1.284       .  A
O3716     Co3719   2.040       .  S
Co3717     O3721   2.050       .  S
Co3718     O3721   2.048       .  S
Co3719     O3721   2.050       .  S
Co3720     O3721   2.070       .  S
C3722      C4884   1.473       .  S
C3723      C4893   1.474       .  S
C3724      C4860   1.520       .  S
C3725      C4845   1.492       .  S
O3726      C3734   1.260       .  A
O3726     Co3746   1.993       .  S
O3727      C3735   1.280       .  A
O3727     Co3747   1.987       .  S
O3728      C3736   1.269       .  A
O3728     Co3748   2.017       .  S
O3729     Co3749   2.001       .  S
O3730      C3736   1.261       .  A
O3730     Co3747   1.970       .  S
O3731      C3737   1.279       .  A
O3731     Co3746   1.930   1_655  S
O3732      C3735   1.255       .  A
O3732     Co3749   1.948       .  S
O3733     Co3748   2.016       .  S
C3734      C4908   1.504   1_455  S
C3735      C4812   1.500       .  S
C3736      C4881   1.472       .  S
C3737      C4824   1.483       .  S
O3738      C3751   1.250       .  A
O3738     Co3746   1.991   1_655  S
O3739      C3752   1.274       .  A
O3739     Co3747   2.018       .  S
O3740     Co3748   1.964       .  S
O3741      C3754   1.252       .  A
O3741     Co3749   2.011       .  S
O3742      C3754   1.239       .  A
O3742     Co3747   1.958       .  S
O3743      C3753   1.274       .  A
O3743     Co3746   2.008   1_655  S
O3744     Co3749   1.921       .  S
O3745      C3752   1.262       .  A
O3745     Co3748   1.959       .  S
Co3747     O3750   2.015       .  S
Co3748     O3750   2.079       .  S
Co3749     O3750   2.190       .  S
C3751      C4869   1.452       .  S
C3752      C4797   1.466       .  S
C3753      C4785   1.480       .  S
C3754      C4896   1.475       .  S
O3755     Co3775   2.082       .  S
O3756     Co3776   1.948       .  S
O3757      C3765   1.273       .  A
O3757     Co3777   2.059       .  S
O3759      C3765   1.255   1_455  A
O3759     Co3776   2.000   1_455  S
O3761     Co3778   2.065       .  S
O3762     Co3777   1.910       .  S
C3763      C4821   1.493       .  S
C3764      C4728   1.496       .  S
C3766      C4737   1.455       .  S
O3767      C3780   1.269       .  A
O3768      C3781   1.278       .  A
O3768     Co3776   2.019       .  S
O3769      C3782   1.295       .  A
O3769     Co3777   2.118       .  S
O3770      C3783   1.271       .  A
O3770     Co3778   1.940       .  S
O3771      C3783   1.287       .  A
O3771     Co3776   2.080       .  S
O3772      C3782   1.236       .  A
O3772     Co3775   1.903       .  S
O3773      C3780   1.252       .  A
O3774      C3781   1.271       .  A
O3774     Co3777   1.955       .  S
Co3775     O3779   2.092       .  S
Co3776     O3779   2.027       .  S
Co3777     O3779   2.042       .  S
Co3778     O3779   2.024       .  S
C3780      C4761   1.472       .  S
C3781      C4752   1.485       .  S
C3782      C4920   1.521       .  S
C3783      C4713   1.486       .  S
O3784      C3792   1.273       .  A
O3784     Co3804   2.103       .  S
O3785      C3793   1.269       .  A
O3785     Co3805   1.934       .  S
O3786      C3794   1.265       .  A
O3786     Co3806   2.022       .  S
O3787      C3795   1.276       .  A
O3787     Co3807   2.024       .  S
O3788      C3794   1.255       .  A
O3788     Co3805   1.989       .  S
O3789      C3795   1.265       .  A
O3789     Co3804   1.952       .  S
O3790      C3793   1.290       .  A
O3790     Co3807   2.085       .  S
O3791      C3792   1.221       .  A
O3791     Co3806   1.912       .  S
C3792      C4857   1.512       .  S
C3793      C4701   1.492       .  S
C3794      C4764   1.492       .  S
C3795      C4749   1.464       .  S
O3796      C3809   1.275       .  A
O3796     Co3804   2.056       .  S
O3797      C3810   1.275       .  A
O3797     Co3805   2.003       .  S
O3798      C3811   1.283       .  A
O3798     Co3806   2.102       .  S
O3799      C3812   1.271       .  A
O3799     Co3807   1.939       .  S
O3800      C3812   1.287       .  A
O3800     Co3805   2.076       .  S
O3801      C3811   1.232       .  A
O3801     Co3804   1.897       .  S
O3802      C3809   1.258       .  A
O3802     Co3807   2.000       .  S
O3803      C3810   1.272       .  A
O3803     Co3806   1.956       .  S
Co3804     O3808   2.068       .  S
Co3805     O3808   2.017       .  S
Co3806     O3808   2.079       .  S
Co3807     O3808   2.035       .  S
C3809      C4773   1.503       .  S
C3810      C4740   1.458       .  S
C3811      C4809   1.490       .  S
C3812      C4689   1.495       .  S
O3813      C3821   1.271       .  A
O3813     Co3833   1.939       .  S
O3814      C3822   1.277       .  A
O3814     Co3834   2.111       .  S
O3815      C3823   1.284       .  A
O3815     Co3835   2.028       .  S
O3816      C3824   1.262       .  A
O3816     Co3836   2.023       .  S
O3817      C3823   1.267       .  A
O3817     Co3834   1.939       .  S
O3818      C3824   1.252       .  A
O3818     Co3833   1.995       .  S
O3819      C3822   1.223       .  A
O3819     Co3836   1.920       .  S
O3820      C3821   1.289       .  A
O3820     Co3835   2.082       .  S
O3825      C3838   1.279       .  A
O3825     Co3833   2.020       .  S
O3826      C3839   1.264       .  A
O3826     Co3834   2.025       .  S
O3827      C3840   1.276       .  A
O3827     Co3835   1.941       .  S
O3828      C3841   1.280       .  A
O3828     Co3836   2.109       .  S
O3829      C3841   1.227       .  A
O3829     Co3834   1.923       .  S
O3830      C3840   1.288       .  A
O3830     Co3833   2.070       .  S
O3831      C3838   1.267       .  A
O3831     Co3836   1.945       .  S
O3832      C3839   1.252       .  A
O3832     Co3835   1.992       .  S
Co3833     O3837   2.009       .  S
Co3834     O3837   2.064       .  S
Co3835     O3837   2.018       .  S
Co3836     O3837   2.059       .  S
C3838      C4641   1.452       .  S
C3839      C4653   1.479       .  S
C3840      C4704   1.493       .  S
C3841      C4620   1.508       .  S
O3842      C3850   1.273       .  A
O3842     Co3862   1.949       .  S
O3843      C3851   1.276       .  A
O3843     Co3863   2.110       .  S
O3844      C3852   1.277       .  A
O3845      C3853   1.264       .  A
O3845     Co3865   2.023       .  S
O3846      C3852   1.267       .  A
O3847      C3853   1.252       .  A
O3847     Co3862   1.990       .  S
O3848      C3851   1.224       .  A
O3848     Co3865   1.922       .  S
O3849      C3850   1.285       .  A
O3849     Co3864   2.064       .  S
C3850      C4725   1.488       .  S
C3851      C4605   1.511       .  S
C3852      C4632   1.454       .  S
C3853      C4668   1.494       .  S
O3854      C3867   1.279       .  A
O3854     Co3862   2.016       .  S
O3855      C3868   1.270       .  A
O3856      C3869   1.272       .  A
O3856     Co3864   1.939       .  S
O3857      C3870   1.282       .  A
O3857     Co3865   2.101       .  S
O3858      C3870   1.231       .  A
O3858     Co3863   1.914       .  S
O3859      C3869   1.286       .  A
O3859     Co3862   2.077       .  S
O3860      C3867   1.269       .  A
O3860     Co3865   1.946       .  S
O3861      C3868   1.257       .  A
Co3862     O3866   2.020       .  S
Co3863     O3866   2.068       .  S
Co3864     O3866   2.021       .  S
Co3865     O3866   2.058       .  S
C3867      C4644   1.467       .  S
C3868      C4656   1.502       .  S
C3869      C4716   1.481       .  S
C3870      C4596   1.492       .  S
O3871      C3879   1.228       .  A
O3871     Co3891   1.917       .  S
O3872      C3880   1.291       .  A
O3872     Co3892   2.073       .  S
O3873      C3881   1.267       .  A
O3873     Co3893   1.951       .  S
O3874      C3882   1.252       .  A
O3874     Co3894   1.991       .  S
O3875      C3881   1.275       .  A
O3875     Co3892   2.010       .  S
O3876      C3882   1.263       .  A
O3876     Co3891   2.028       .  S
O3877      C3880   1.276       .  A
O3877     Co3894   1.941       .  S
O3878      C3879   1.284       .  A
O3878     Co3893   2.114       .  S
C3879      C4680   1.509       .  S
O3883      C3896   1.267       .  A
O3883     Co3891   1.931       .  S
O3884      C3897   1.252       .  A
O3884     Co3892   1.995       .  S
O3885      C3898   1.225       .  A
O3885     Co3893   1.923       .  S
O3886      C3899   1.289       .  A
O3886     Co3894   2.080       .  S
O3887      C3899   1.268       .  A
O3887     Co3892   1.935       .  S
O3888      C3898   1.275       .  A
O3888     Co3891   2.103       .  S
O3889      C3896   1.284       .  A
O3889     Co3894   2.031       .  S
O3890      C3897   1.266       .  A
O3890     Co3893   2.033       .  S
Co3891     O3895   2.059       .  S
Co3892     O3895   2.007       .  S
Co3893     O3895   2.056       .  S
Co3894     O3895   2.019       .  S
C3896      C4557   1.474       .  S
C3897      C4584   1.489       .  S
C3898      C4608   1.508       .  S
C3899      C4521   1.492       .  S
O3900      C3908   1.222       .  A
O3900     Co3920   1.920       .  S
O3901      C3909   1.287       .  A
O3901     Co3921   2.081       .  S
O3902     Co3922   1.939       .  S
O3903      C3911   1.256       .  A
O3903     Co3923   2.008       .  S
O3904     Co3921   2.018       .  S
O3905      C3911   1.262       .  A
O3905     Co3920   2.017       .  S
O3906      C3909   1.271       .  A
O3906     Co3923   1.944       .  S
O3907      C3908   1.275       .  A
O3907     Co3922   2.110       .  S
C3908      C4617   1.508       .  S
C3909      C4497   1.486       .  S
C3910      C4548   1.467       .  S
C3911      C4569   1.495       .  S
O3912      C3925   1.268       .  A
O3912     Co3920   1.942       .  S
O3913     Co3921   1.995       .  S
O3914      C3927   1.228       .  A
O3914     Co3922   1.915       .  S
O3915      C3928   1.288       .  A
O3915     Co3923   2.075       .  S
O3916      C3928   1.275       .  A
O3916     Co3921   1.939       .  S
O3917      C3927   1.282       .  A
O3917     Co3920   2.108       .  S
O3918      C3925   1.278       .  A
O3918     Co3923   2.018       .  S
O3919     Co3922   2.033       .  S
Co3920     O3924   2.047       .  S
Co3921     O3924   2.012       .  S
Co3922     O3924   2.071       .  S
Co3923     O3924   2.023       .  S
C3925      C4560   1.462       .  S
C3926      C4581   1.495       .  S
C3927      C4593   1.494       .  S
C3928      C4509   1.498       .  S
O3929      C3937   1.269       .  A
O3929     Co3949   2.052       .  S
O3930      C3938   1.234       .  A
O3930     Co3950   1.932       .  S
O3931      C3939   1.249       .  A
O3931     Co3951   1.953       .  S
O3932      C3940   1.243       .  A
O3932     Co3952   1.933       .  S
O3933      C3939   1.260       .  A
O3933     Co3950   2.022       .  S
O3934      C3940   1.257       .  A
O3934     Co3949   2.000       .  S
O3935      C3938   1.271       .  A
O3935     Co3952   2.077       .  S
O3936      C3937   1.248       .  A
O3936     Co3951   1.935       .  S
C3937      C4848   1.480       .  S
C3938      C4485   1.480       .  S
C3939      C4476   1.474       .  S
O3941      C3954   1.260       .  A
O3941     Co3949   1.887       .  S
O3942      C3955   1.252       .  A
O3942     Co3950   1.919       .  S
O3943      C3956   1.269       .  A
O3943     Co3951   2.034       .  S
O3944      C3957   1.222       .  A
O3944     Co3952   1.906       .  S
O3945      C3957   1.255       .  A
O3945     Co3950   2.060       .  S
O3946      C3956   1.255       .  A
O3946     Co3949   1.963       .  S
O3947      C3954   1.289       .  A
O3947     Co3952   2.092       .  S
O3948      C3955   1.273       .  A
O3948     Co3951   2.020       .  S
Co3949     O3953   2.016       .  S
Co3950     O3953   2.118       .  S
Co3951     O3953   2.073       .  S
Co3952     O3953   2.118       .  S
C3957      C4425   1.484       .  S
O3958      C3966   1.255       .  A
O3958     Co3978   1.966       .  S
O3959      C3967   1.260       .  A
O3959     Co3979   1.888       .  S
O3960      C3968   1.245       .  A
O3960     Co3980   1.919       .  S
O3961      C3969   1.262       .  A
O3961     Co3981   1.959       .  S
O3962      C3968   1.280       .  A
O3962     Co3979   2.101       .  S
O3963      C3969   1.258       .  A
O3963     Co3978   1.979       .  S
O3964      C3967   1.311       .  A
O3964     Co3981   2.128       .  S
O3965      C3966   1.261       .  A
O3965     Co3980   1.987       .  S
C3966      C4788   1.469       .  S
C3967      C4413   1.481       .  S
C3968      C4461   1.490       .  S
C3969      C4437   1.458       .  S
O3970      C3983   1.244       .  A
O3970     Co3978   1.938       .  S
O3971      C3984   1.255       .  A
O3971     Co3979   1.953       .  S
O3972      C3985   1.258       .  A
O3972     Co3980   1.965       .  S
O3973      C3986   1.267       .  A
O3973     Co3981   1.889       .  S
O3974      C3986   1.315       .  A
O3974     Co3979   2.134       .  S
O3975      C3985   1.258       .  A
O3975     Co3978   1.971       .  S
O3976      C3983   1.267       .  A
O3976     Co3981   2.085       .  S
O3977      C3984   1.260       .  A
O3977     Co3980   1.995       .  S
Co3978     O3982   2.054       .  S
Co3979     O3982   2.031       .  S
Co3980     O3982   2.080       .  S
Co3981     O3982   2.060       .  S
C3983      C4473   1.464       .  S
C3984      C4452   1.447       .  S
C3985      C4800   1.460       .  S
C3986      C4401   1.485       .  S
O3987      C3995   1.273       .  A
O3988      C3996   1.275       .  A
O3988     Co4008   1.938       .  S
O3989      C3997   1.263       .  A
O3989     Co4009   2.021       .  S
O3990      C3998   1.276       .  A
O3990     Co4010   2.016       .  S
O3991      C3997   1.253       .  A
O3991     Co4008   2.002       .  S
O3992      C3998   1.264       .  A
O3992     Co4007   1.942       .  S
O3993      C3996   1.287       .  A
O3994      C3995   1.239       .  A
O3994     Co4009   1.932       .  S
C3995      C4416   1.501       .  S
C3996      C4329   1.501       .  S
C3997      C4392   1.499       .  S
C3998      C4365   1.464       .  S
O3999      C4012   1.266       .  A
O3999     Co4007   2.030       .  S
O4000      C4013   1.281       .  A
O4000     Co4008   2.027       .  S
O4001      C4014   1.272       .  A
O4001     Co4009   2.075       .  S
O4002      C4015   1.270       .  A
O4003      C4015   1.287       .  A
O4003     Co4008   2.082       .  S
O4004     Co4007   1.910       .  S
O4005      C4012   1.251       .  A
O4005     Co4010   1.994       .  S
O4006      C4013   1.268       .  A
O4006     Co4009   1.945       .  S
Co4008     O4011   2.019       .  S
Co4009     O4011   2.068       .  S
O4016      C4024   1.275       .  A
O4016     Co4036   2.080       .  S
O4017      C4025   1.274       .  A
O4017     Co4037   1.955       .  S
O4018      C4026   1.263       .  A
O4018     Co4038   2.026       .  S
O4019      C4027   1.274       .  A
O4019     Co4039   2.005       .  S
O4020      C4026   1.253       .  A
O4020     Co4037   1.998       .  S
O4021      C4027   1.268       .  A
O4021     Co4036   1.961       .  S
O4022      C4025   1.281       .  A
O4022     Co4039   2.053       .  S
O4023      C4024   1.236       .  A
O4023     Co4038   1.924       .  S
C4024      C4404   1.499       .  S
C4025      C4317   1.490       .  S
C4026      C4389   1.483       .  S
C4027      C4368   1.451       .  S
O4028      C4041   1.267       .  A
O4028     Co4036   2.024       .  S
O4029      C4042   1.280       .  A
O4029     Co4037   2.031       .  S
O4030      C4043   1.276       .  A
O4030     Co4038   2.064       .  S
O4031      C4044   1.272       .  A
O4031     Co4039   1.936       .  S
O4032      C4044   1.286       .  A
O4032     Co4037   2.075       .  S
O4033      C4043   1.240       .  A
O4033     Co4036   1.931       .  S
O4034      C4041   1.253       .  A
O4034     Co4039   1.986       .  S
O4035      C4042   1.264       .  A
O4035     Co4038   1.944       .  S
Co4036     O4040   2.071       .  S
Co4037     O4040   2.032       .  S
Co4038     O4040   2.053       .  S
Co4039     O4040   2.022       .  S
C4041      C4380   1.482       .  S
C4042      C4353   1.470       .  S
C4043      C4488   1.479       .  S
C4044      C4305   1.480       .  S
O4045      C4053   1.274       .  A
O4045     Co4065   1.937       .  S
O4046      C4054   1.280       .  A
O4046     Co4066   2.106       .  S
O4047      C4055   1.279       .  A
O4047     Co4067   2.024       .  S
O4048      C4056   1.262       .  A
O4048     Co4068   2.022       .  S
O4049      C4055   1.266       .  A
O4049     Co4066   1.940       .  S
O4050      C4056   1.253       .  A
O4050     Co4065   1.991       .  S
O4051      C4054   1.227       .  A
O4051     Co4068   1.916       .  S
O4052      C4053   1.290       .  A
O4052     Co4067   2.075       .  S
C4053      C4320   1.490       .  S
C4054      C4233   1.493       .  S
C4055      C4260   1.481       .  S
C4056      C4272   1.491       .  S
O4057      C4070   1.280   1_655  A
O4057     Co4065   2.018       .  S
O4058      C4071   1.267       .  A
O4058     Co4066   2.032       .  S
O4059      C4072   1.272       .  A
O4059     Co4067   1.943       .  S
O4060      C4073   1.272       .  A
O4060     Co4068   2.102       .  S
O4061      C4073   1.224       .  A
O4061     Co4066   1.912       .  S
O4062      C4072   1.285       .  A
O4062     Co4065   2.071       .  S
O4063      C4070   1.269       .  A
O4063     Co4068   1.941   1_455  S
O4064      C4071   1.252   1_455  A
O4064     Co4067   1.998   1_455  S
Co4065     O4069   2.009       .  S
Co4066     O4069   2.050       .  S
Co4067     O4069   2.022       .  S
Co4068     O4069   2.070       .  S
C4073      C4296   1.506       .  S
O4074      C4082   1.289       .  A
O4074     Co4094   2.080       .  S
O4075      C4083   1.236       .  A
O4075     Co4095   1.924       .  S
O4076      C4084   1.254   1_545  A
O4077      C4085   1.268       .  A
O4077     Co4097   1.943       .  S
O4078      C4084   1.268       .  A
O4079      C4085   1.280       .  A
O4079     Co4094   2.027       .  S
O4080      C4083   1.284       .  A
O4080     Co4097   2.106       .  S
O4081      C4082   1.269       .  A
O4081     Co4096   1.938       .  S
C4082      C4512   1.480       .  S
C4083      C4176   1.501       .  S
C4084      C4209   1.490       .  S
C4085      C4197   1.466       .  S
O4086      C4099   1.252       .  A
O4086     Co4094   2.006       .  S
O4087      C4100   1.263       .  A
O4088      C4101   1.288       .  A
O4088     Co4096   2.084       .  S
O4089      C4102   1.226       .  A
O4089     Co4097   1.920       .  S
O4090      C4102   1.278       .  A
O4090     Co4095   2.100       .  S
O4091      C4101   1.272       .  A
O4091     Co4094   1.944       .  S
O4092      C4099   1.265       .  A
O4092     Co4097   2.034       .  S
O4093      C4100   1.272       .  A
Co4094     O4098   2.032       .  S
Co4095     O4098   2.076       .  S
Co4096     O4098   2.015       .  S
Co4097     O4098   2.044       .  S
C4102      C4293   1.505       .  S
O4103      C4111   1.270       .  A
O4103     Co4123   1.951       .  S
O4104      C4112   1.277       .  A
O4104     Co4124   2.115       .  S
O4105      C4113   1.279       .  A
O4106      C4114   1.262       .  A
O4106     Co4126   2.028       .  S
O4107      C4113   1.268       .  A
O4108      C4114   1.250       .  A
O4108     Co4123   1.990       .  S
O4109      C4112   1.222       .  A
O4109     Co4126   1.920       .  S
O4110      C4111   1.285       .  A
O4110     Co4125   2.074       .  S
C4111      C4332   1.489       .  S
C4112      C4161   1.516       .  S
C4113      C4257   1.461       .  S
C4114      C4269   1.476       .  S
O4115      C4128   1.278       .  A
O4115     Co4123   2.017       .  S
O4116      C4129   1.271       .  A
O4117      C4130   1.275       .  A
O4117     Co4125   1.942       .  S
O4118      C4131   1.287       .  A
O4118     Co4126   2.107       .  S
O4119      C4131   1.238       .  A
O4119     Co4124   1.924       .  S
O4120      C4130   1.284       .  A
O4120     Co4123   2.065       .  S
O4121      C4128   1.268       .  A
O4121     Co4126   1.947       .  S
O4122      C4129   1.256       .  A
Co4123     O4127   2.017       .  S
Co4124     O4127   2.072       .  S
Co4125     O4127   2.040       .  S
Co4126     O4127   2.054       .  S
C4128      C4245   1.451       .  S
C4129      C4284   1.493       .  S
C4130      C4341   1.484       .  S
C4131      C4173   1.501       .  S
O4132      C4140   1.288       .  A
O4132     Co4152   2.071       .  S
O4133      C4141   1.225       .  A
O4133     Co4153   1.922       .  S
O4134      C4142   1.255       .  A
O4134     Co4154   1.998       .  S
O4135      C4143   1.261       .  A
O4135     Co4155   1.930       .  S
O4136      C4142   1.265       .  A
O4136     Co4153   2.025       .  S
O4137      C4143   1.285       .  A
O4137     Co4152   2.045       .  S
O4138      C4141   1.280       .  A
O4138     Co4155   2.121       .  S
O4139      C4140   1.271       .  A
O4139     Co4154   1.935       .  S
C4140      C4524   1.483       .  S
C4141      C4164   1.515       .  S
C4142      C4212   1.492       .  S
C4143      C4200   1.478       .  S
O4144      C4157   1.251       .  A
O4144     Co4152   1.991       .  S
O4145      C4158   1.266       .  A
O4145     Co4153   1.929       .  S
O4146      C4159   1.291       .  A
O4146     Co4154   2.081       .  S
O4147      C4160   1.226       .  A
O4147     Co4155   1.915       .  S
O4148      C4160   1.281       .  A
O4148     Co4153   2.108       .  S
O4149      C4159   1.275       .  A
O4149     Co4152   1.942       .  S
O4150      C4157   1.267       .  A
O4150     Co4155   2.045       .  S
O4151      C4158   1.278       .  A
O4151     Co4154   2.017       .  S
Co4152     O4156   2.022       .  S
Co4153     O4156   2.054       .  S
Co4154     O4156   2.014       .  S
Co4155     O4156   2.053       .  S
C4157      C4221   1.500       .  S
C4158      C4185   1.469       .  S
C4159      C4533   1.501       .  S
C4160      C4236   1.494       .  S
C4161      C4162   1.428       .  A
C4161      C4166   1.402       .  A
C4162      C4163   1.412       .  A
C4162      H4167   1.084       .  S
C4163      C4164   1.404       .  A
C4163      C4170   1.443       .  S
C4164      C4165   1.428       .  A
C4165      C4166   1.411       .  A
C4165      H4168   1.084       .  S
C4166      C4169   1.442       .  S
C4169      N4171   1.157       .  T
C4170      N4172   1.157       .  T
C4173      C4174   1.403       .  A
C4174      C4175   1.412   1_565  A
C4174      H4179   1.081       .  S
C4175      C4182   1.441       .  S
C4176      C4177   1.406       .  A
C4177      C4178   1.416       .  A
C4177      H4180   1.082       .  S
C4178      C4181   1.444       .  S
C4181      N4183   1.157       .  T
C4182      N4184   1.156       .  T
C4185      C4186   1.405       .  A
C4185      C4190   1.418       .  A
C4186      C4187   1.382       .  A
C4186      H4191   1.085       .  S
C4187      C4188   1.402       .  A
C4187      C4194   1.447       .  S
C4188      C4189   1.396       .  A
C4189      C4190   1.397       .  A
C4189      H4192   1.085   1_565  S
C4190      C4193   1.445       .  S
C4193      N4195   1.158       .  T
C4197      C4198   1.396       .  A
C4197      C4202   1.409       .  A
C4198      C4199   1.383       .  A
C4198      H4203   1.086       .  S
C4199      C4200   1.421       .  A
C4199      C4206   1.448       .  S
C4200      C4201   1.407       .  A
C4201      C4202   1.405       .  A
C4201      H4204   1.083       .  S
C4202      C4205   1.442       .  S
C4205      N4207   1.157       .  T
C4206      N4208   1.158       .  T
C4209      C4210   1.407       .  A
C4209      C4214   1.412       .  A
C4210      C4211   1.404       .  A
C4211      C4212   1.412       .  A
C4211      C4218   1.444       .  S
C4212      C4213   1.409       .  A
C4213      C4214   1.408       .  A
C4213      H4216   1.084       .  S
C4214      C4217   1.443       .  S
C4217      N4219   1.157       .  T
C4218      N4220   1.157       .  T
C4221      C4222   1.411       .  A
C4221      C4226   1.414       .  A
C4222      C4223   1.408       .  A
C4222      H4227   1.084       .  S
C4223      C4224   1.411       .  A
C4224      C4225   1.409       .  A
C4225      C4226   1.409       .  A
C4225      H4228   1.085       .  S
C4226      C4229   1.444       .  S
C4229      N4231   1.157       .  T
C4230      N4232   1.157       .  T
C4233      C4234   1.389       .  A
C4233      C4238   1.434       .  A
C4234      C4235   1.404       .  A
C4234      H4239   1.085       .  S
C4235      C4236   1.434       .  A
C4235      C4242   1.443       .  S
C4236      C4237   1.390       .  A
C4237      C4238   1.404       .  A
C4237      H4240   1.085       .  S
C4238      C4241   1.444       .  S
C4241      N4243   1.157       .  T
C4242      N4244   1.157       .  T
C4245      C4246   1.397       .  A
C4245      C4250   1.407       .  A
C4246      C4247   1.397       .  A
C4246      H4251   1.085       .  S
C4247      C4248   1.416       .  A
C4248      C4249   1.402       .  A
C4249      C4250   1.388       .  A
C4249      H4252   1.085       .  S
C4250      C4253   1.445       .  S
C4253      N4255   1.157       .  T
C4254      N4256   1.157       .  T
C4257      C4258   1.401       .  A
C4257      C4262   1.407       .  A
C4258      C4259   1.404       .  A
C4258      H4263   1.085       .  S
C4259      C4260   1.418       .  A
C4259      C4266   1.443       .  S
C4260      C4261   1.406       .  A
C4261      C4262   1.385       .  A
C4261      H4264   1.084       .  S
C4262      C4265   1.448       .  S
C4265      N4267   1.158       .  T
C4266      N4268   1.157       .  T
C4269      C4270   1.403       .  A
C4269      C4274   1.407       .  A
C4270      C4271   1.403       .  A
C4270      H4275   1.085       .  S
C4271      C4272   1.416       .  A
C4271      C4278   1.444       .  S
C4272      C4273   1.410       .  A
C4273      C4274   1.401       .  A
C4273      H4276   1.084       .  S
C4274      C4277   1.444       .  S
C4277      N4279   1.157       .  T
C4278      N4280   1.157       .  T
C4281      C4282   1.402       .  A
C4281      C4286   1.418       .  A
C4282      C4283   1.405       .  A
C4282      H4287   1.085       .  S
C4283      C4284   1.416       .  A
C4283      C4290   1.439       .  S
C4284      C4285   1.400       .  A
C4285      C4286   1.404       .  A
C4285      H4288   1.085       .  S
C4286      C4289   1.437       .  S
C4289      N4291   1.156       .  T
C4290      N4292   1.156       .  T
C4293      C4298   1.401       .  A
C4294      C4295   1.407   1_455  A
C4294      H4299   1.084       .  S
C4295      C4296   1.401       .  A
C4295      C4302   1.443   1_655  S
C4297      C4298   1.406       .  A
C4297      H4300   1.084       .  S
C4298      C4301   1.443       .  S
C4301      N4303   1.157       .  T
C4302      N4304   1.157       .  T
C4305      C4306   1.399       .  A
C4305      C4310   1.416       .  A
C4306      C4307   1.401       .  A
C4306      H4311   1.085       .  S
C4307      C4308   1.417       .  A
C4307      C4314   1.444       .  S
C4308      C4309   1.401       .  A
C4309      C4310   1.404       .  A
C4310      C4313   1.444       .  S
C4313      N4315   1.157       .  T
C4314      N4316   1.157       .  T
C4317      C4318   1.405       .  A
C4317      C4322   1.418       .  A
C4318      C4319   1.410       .  A
C4318      H4323   1.084       .  S
C4319      C4320   1.415       .  A
C4319      C4326   1.437       .  S
C4320      C4321   1.401       .  A
C4321      C4322   1.398       .  A
C4321      H4324   1.084       .  S
C4322      C4325   1.446       .  S
C4325      N4327   1.157       .  T
C4326      N4328   1.155       .  T
C4329      C4330   1.408       .  A
C4329      C4334   1.415       .  A
C4330      C4331   1.400       .  A
C4331      C4332   1.411       .  A
C4332      C4333   1.409       .  A
C4333      C4334   1.414       .  A
C4333      H4336   1.084       .  S
C4334      C4337   1.441       .  S
C4337      N4339   1.157       .  T
C4338      N4340   1.157       .  T
C4341      C4342   1.401       .  A
C4341      C4346   1.417       .  A
C4342      C4343   1.405       .  A
C4342      H4347   1.085       .  S
C4343      C4344   1.416       .  A
C4343      C4350   1.443       .  S
C4344      C4345   1.400       .  A
C4345      C4346   1.403       .  A
C4346      C4349   1.445       .  S
C4349      N4351   1.157       .  T
C4350      N4352   1.157       .  T
C4353      C4354   1.404       .  A
C4353      C4358   1.412       .  A
C4354      C4355   1.405       .  A
C4354      H4359   1.084       .  S
C4355      C4356   1.415       .  A
C4355      C4362   1.444       .  S
C4356      C4357   1.403       .  A
C4357      C4358   1.387       .  A
C4357      H4360   1.085       .  S
C4358      C4361   1.448       .  S
C4361      N4363   1.158       .  T
C4362      N4364   1.157       .  T
C4365      C4366   1.405       .  A
C4365      C4370   1.413       .  A
C4366      C4367   1.398       .  A
C4366      H4371   1.085       .  S
C4367      C4368   1.405       .  A
C4367      C4374   1.443       .  S
C4368      C4369   1.396       .  A
C4369      C4370   1.389       .  A
C4369      H4372   1.086       .  S
C4370      C4373   1.445       .  S
C4373      N4375   1.157       .  T
C4374      N4376   1.157       .  T
C4377      C4378   1.404       .  A
C4377      C4382   1.415       .  A
C4378      C4379   1.405       .  A
C4378      H4383   1.085       .  S
C4379      C4380   1.413       .  A
C4379      C4386   1.440       .  S
C4380      C4381   1.396       .  A
C4381      C4382   1.400       .  A
C4381      H4384   1.085       .  S
C4382      C4385   1.435       .  S
C4385      N4387   1.155       .  T
C4386      N4388   1.156       .  T
C4389      C4390   1.399       .  A
C4389      C4394   1.411       .  A
C4390      C4391   1.404       .  A
C4390      H4395   1.085       .  S
C4391      C4392   1.421       .  A
C4391      C4398   1.441       .  S
C4392      C4393   1.408       .  A
C4393      C4394   1.406       .  A
C4393      H4396   1.085       .  S
C4394      C4397   1.444       .  S
C4397      N4399   1.157       .  T
C4398      N4400   1.156       .  T
C4401      C4402   1.416       .  A
C4401      C4406   1.400       .  A
C4402      C4403   1.410       .  A
C4402      H4407   1.085       .  S
C4403      C4404   1.406       .  A
C4403      C4410   1.442       .  S
C4404      C4405   1.420       .  A
C4405      C4406   1.401       .  A
C4405      H4408   1.085       .  S
C4406      C4409   1.444       .  S
C4409      N4411   1.157       .  T
C4410      N4412   1.157       .  T
C4413      C4414   1.414       .  A
C4413      C4418   1.403       .  A
C4414      C4415   1.410       .  A
C4414      H4419   1.084       .  S
C4415      C4416   1.410       .  A
C4415      C4422   1.442       .  S
C4416      C4417   1.418       .  A
C4417      C4418   1.399       .  A
C4417      H4420   1.084       .  S
C4418      C4421   1.444       .  S
C4421      N4423   1.157       .  T
C4422      N4424   1.157   1_565  T
C4425      C4426   1.390       .  A
C4426      H4431   1.085       .  S
C4427      C4428   1.430       .  A
C4428      C4429   1.387   1_655  A
C4429      C4430   1.399       .  A
C4430      C4433   1.439       .  S
C4433      N4435   1.157       .  T
C4434      N4436   1.157       .  T
C4437      C4438   1.398       .  A
C4437      C4442   1.421       .  A
C4438      C4439   1.386       .  A
C4438      H4443   1.085       .  S
C4439      C4440   1.410       .  A
C4439      C4446   1.447       .  S
C4440      C4441   1.390       .  A
C4441      C4442   1.390       .  A
C4441      H4444   1.086       .  S
C4442      C4445   1.446       .  S
C4445      N4447   1.157       .  T
C4446      N4448   1.157   1_655  T
C4449      C4450   1.404       .  A
C4449      C4454   1.411       .  A
C4450      C4451   1.387       .  A
C4450      H4455   1.085       .  S
C4451      C4452   1.402       .  A
C4451      C4458   1.444       .  S
C4452      C4453   1.400       .  A
C4453      C4454   1.396       .  A
C4453      H4456   1.085       .  S
C4457      N4459   1.157       .  T
C4458      N4460   1.157       .  T
C4461      C4462   1.396       .  A
C4461      C4466   1.424       .  A
C4462      C4463   1.399       .  A
C4462      H4467   1.083       .  S
C4463      C4464   1.420       .  A
C4463      C4470   1.440   1_565  S
C4464      C4465   1.394       .  A
C4465      C4466   1.399       .  A
C4465      H4468   1.086   1_655  S
C4466      C4469   1.438       .  S
C4469      N4471   1.155       .  T
C4473      C4474   1.405       .  A
C4473      C4478   1.405       .  A
C4474      C4475   1.402       .  A
C4474      H4479   1.085       .  S
C4475      C4476   1.410       .  A
C4475      C4482   1.444       .  S
C4476      C4477   1.405       .  A
C4477      C4478   1.394       .  A
C4477      H4480   1.085       .  S
C4478      C4481   1.445       .  S
C4481      N4483   1.157       .  T
C4482      N4484   1.157       .  T
C4485      C4486   1.405       .  A
C4485      C4490   1.413       .  A
C4486      C4487   1.406       .  A
C4486      H4491   1.084       .  S
C4487      C4488   1.415       .  A
C4487      C4494   1.444       .  S
C4488      C4489   1.403       .  A
C4489      C4490   1.402       .  A
C4489      H4492   1.082       .  S
C4490      C4493   1.443       .  S
C4493      N4495   1.157       .  T
C4494      N4496   1.157       .  T
C4497      C4498   1.407       .  A
C4497      C4502   1.409       .  A
C4498      C4499   1.405       .  A
C4498      H4503   1.084       .  S
C4499      C4500   1.409       .  A
C4500      C4501   1.408       .  A
C4501      C4502   1.407       .  A
C4501      H4504   1.085       .  S
C4502      C4505   1.443       .  S
C4505      N4507   1.157       .  T
C4506      N4508   1.157       .  T
C4509      C4510   1.407       .  A
C4509      C4514   1.421       .  A
C4510      C4511   1.408       .  A
C4510      H4515   1.084       .  S
C4511      C4512   1.411       .  A
C4511      C4518   1.437       .  S
C4512      C4513   1.393       .  A
C4513      C4514   1.397       .  A
C4513      H4516   1.085       .  S
C4514      C4517   1.438       .  S
C4517      N4519   1.155       .  T
C4518      N4520   1.156       .  T
C4521      C4522   1.403       .  A
C4521      C4526   1.417       .  A
C4522      C4523   1.395       .  A
C4522      H4527   1.081       .  S
C4523      C4524   1.411       .  A
C4523      C4530   1.445       .  S
C4524      C4525   1.406       .  A
C4525      C4526   1.410       .  A
C4525      H4528   1.084       .  S
C4526      C4529   1.443       .  S
C4529      N4531   1.157       .  T
C4530      N4532   1.157       .  T
C4533      C4534   1.411       .  A
C4533      C4538   1.417       .  A
C4534      C4535   1.415       .  A
C4534      H4539   1.084       .  S
C4535      C4536   1.416       .  A
C4535      C4542   1.443       .  S
C4536      C4537   1.401       .  A
C4537      C4538   1.398       .  A
C4537      H4540   1.086       .  S
C4538      C4541   1.440       .  S
C4541      N4543   1.155       .  T
C4542      N4544   1.157       .  T
C4545      C4546   1.399       .  A
C4545      C4550   1.406       .  A
C4546      C4547   1.399       .  A
C4546      H4551   1.085       .  S
C4547      C4548   1.416       .  A
C4547      C4554   1.445       .  S
C4548      C4549   1.402       .  A
C4549      C4550   1.387       .  A
C4549      H4552   1.085   1_565  S
C4553      N4555   1.157       .  T
C4554      N4556   1.157       .  T
C4557      C4558   1.407       .  A
C4557      C4562   1.414       .  A
C4558      C4559   1.384       .  A
C4558      H4563   1.085       .  S
C4559      C4560   1.407       .  A
C4559      C4566   1.448       .  S
C4560      C4561   1.402       .  A
C4561      C4562   1.399       .  A
C4561      H4564   1.085       .  S
C4562      C4565   1.443       .  S
C4565      N4567   1.157       .  T
C4566      N4568   1.158       .  T
C4569      C4570   1.410       .  A
C4569      C4574   1.417       .  A
C4570      C4571   1.406       .  A
C4570      H4575   1.083       .  S
C4571      C4572   1.408       .  A
C4571      C4578   1.444   1_655  S
C4572      C4573   1.403       .  A
C4573      C4574   1.403       .  A
C4573      H4576   1.085       .  S
C4574      C4577   1.444       .  S
C4577      N4579   1.157       .  T
C4581      C4582   1.405       .  A
C4581      C4586   1.419       .  A
C4582      C4583   1.407       .  A
C4582      H4587   1.085       .  S
C4583      C4584   1.416       .  A
C4583      C4590   1.444       .  S
C4584      C4585   1.400       .  A
C4585      C4586   1.403       .  A
C4585      H4588   1.084       .  S
C4589      N4591   1.156       .  T
C4590      N4592   1.157       .  T
C4593      C4594   1.393   1_556  A
C4593      C4598   1.433       .  A
C4594      H4599   1.085       .  S
C4595      C4596   1.430   1_545  A
C4595      C4602   1.445       .  S
C4596      C4597   1.391       .  A
C4597      H4600   1.085       .  S
C4598      C4601   1.445       .  S
C4601      N4603   1.158       .  T
C4602      N4604   1.158       .  T
C4605      C4606   1.427       .  A
C4605      C4610   1.405       .  A
C4606      C4607   1.409       .  A
C4606      H4611   1.084       .  S
C4607      C4608   1.404   1_554  A
C4607      C4614   1.443       .  S
C4608      C4609   1.424       .  A
C4609      C4610   1.407   1_556  A
C4609      H4612   1.084       .  S
C4610      C4613   1.441       .  S
C4613      N4615   1.157       .  T
C4614      N4616   1.157       .  T
C4617      C4618   1.427       .  A
C4617      C4622   1.403   1_556  A
C4618      C4619   1.408   1_556  A
C4618      H4623   1.084       .  S
C4619      C4620   1.403       .  A
C4619      C4626   1.443       .  S
C4620      C4621   1.426       .  A
C4621      C4622   1.407       .  A
C4621      H4624   1.084       .  S
C4622      C4625   1.443       .  S
C4625      N4627   1.157       .  T
C4626      N4628   1.157   1_554  T
C4629      C4630   1.405       .  A
C4629      C4634   1.417       .  A
C4630      C4631   1.398       .  A
C4631      C4632   1.404       .  A
C4632      C4633   1.394       .  A
C4633      C4634   1.389       .  A
C4633      H4636   1.087       .  S
C4634      C4637   1.442       .  S
C4637      N4639   1.156       .  T
C4638      N4640   1.156       .  T
C4641      C4642   1.397       .  A
C4641      C4646   1.407       .  A
C4642      C4643   1.397       .  A
C4642      H4647   1.085       .  S
C4643      C4644   1.416       .  A
C4643      C4650   1.445       .  S
C4644      C4645   1.402       .  A
C4645      C4646   1.391       .  A
C4645      H4648   1.085       .  S
C4646      C4649   1.446       .  S
C4649      N4651   1.157       .  T
C4650      N4652   1.157       .  T
C4653      C4654   1.401       .  A
C4653      C4658   1.406       .  A
C4654      C4655   1.407       .  A
C4654      H4659   1.085       .  S
C4655      C4656   1.418       .  A
C4655      C4662   1.439       .  S
C4656      C4657   1.411       .  A
C4657      C4658   1.404       .  A
C4657      H4660   1.080       .  S
C4658      C4661   1.444       .  S
C4661      N4663   1.157       .  T
C4662      N4664   1.156       .  T
C4665      C4666   1.397       .  A
C4665      C4670   1.409       .  A
C4666      C4667   1.401       .  A
C4666      H4671   1.085       .  S
C4667      C4668   1.421       .  A
C4667      C4674   1.440       .  S
C4668      C4669   1.405       .  A
C4669      C4670   1.402       .  A
C4669      H4672   1.085       .  S
C4670      C4673   1.439       .  S
C4673      N4675   1.155       .  T
C4674      N4676   1.156       .  T
C4677      C4678   1.427       .  A
C4678      C4679   1.408       .  A
C4678      H4683   1.084       .  S
C4679      C4680   1.403   1_554  A
C4679      C4686   1.443       .  S
C4681      C4682   1.408   1_556  A
C4681      H4684   1.084       .  S
C4682      C4685   1.443       .  S
C4685      N4687   1.157   1_554  T
C4686      N4688   1.157       .  T
C4689      C4690   1.405       .  A
C4689      C4694   1.413       .  A
C4690      C4691   1.401       .  A
C4690      H4695   1.085       .  S
C4691      C4692   1.417       .  A
C4691      C4698   1.445       .  S
C4692      C4693   1.409       .  A
C4693      C4694   1.411       .  A
C4693      H4696   1.084       .  S
C4694      C4697   1.441       .  S
C4697      N4699   1.156       .  T
C4698      N4700   1.157       .  T
C4701      C4702   1.403       .  A
C4701      C4706   1.417       .  A
C4702      C4703   1.400       .  A
C4702      H4707   1.085       .  S
C4703      C4704   1.417       .  A
C4703      C4710   1.445       .  S
C4704      C4705   1.407       .  A
C4705      C4706   1.410       .  A
C4705      H4708   1.084       .  S
C4706      C4709   1.444       .  S
C4709      N4711   1.157       .  T
C4710      N4712   1.157       .  T
C4713      C4714   1.408       .  A
C4713      C4718   1.411       .  A
C4714      C4715   1.405       .  A
C4714      H4719   1.085       .  S
C4715      C4716   1.408       .  A
C4715      C4722   1.445       .  S
C4716      C4717   1.406       .  A
C4717      C4718   1.405       .  A
C4717      H4720   1.084       .  S
C4718      C4721   1.444       .  S
C4721      N4723   1.157       .  T
C4722      N4724   1.157       .  T
C4725      C4726   1.407       .  A
C4725      C4730   1.412       .  A
C4726      C4727   1.414       .  A
C4726      H4731   1.084       .  S
C4727      C4728   1.416       .  A
C4727      C4734   1.442       .  S
C4728      C4729   1.406       .  A
C4729      C4730   1.396       .  A
C4729      H4732   1.085       .  S
C4730      C4733   1.446       .  S
C4734      N4736   1.157       .  T
C4737      C4738   1.397       .  A
C4737      C4742   1.413       .  A
C4738      C4739   1.395       .  A
C4739      C4740   1.414       .  A
C4739      C4746   1.446       .  S
C4740      C4741   1.394       .  A
C4741      C4742   1.391       .  A
C4741      H4744   1.085       .  S
C4745      N4747   1.157       .  T
C4746      N4748   1.157       .  T
C4749      C4750   1.399       .  A
C4749      C4754   1.408       .  A
C4750      C4751   1.405       .  A
C4750      H4755   1.085       .  S
C4751      C4752   1.421       .  A
C4751      C4758   1.444       .  S
C4752      C4753   1.404       .  A
C4753      C4754   1.389       .  A
C4753      H4756   1.084       .  S
C4754      C4757   1.445       .  S
C4757      N4759   1.157       .  T
C4758      N4760   1.157       .  T
C4761      C4762   1.399       .  A
C4761      C4766   1.406       .  A
C4762      C4763   1.402       .  A
C4762      H4767   1.084       .  S
C4763      C4764   1.418       .  A
C4763      C4770   1.443       .  S
C4764      C4765   1.410       .  A
C4765      C4766   1.402       .  A
C4765      H4768   1.084       .  S
C4766      C4769   1.444       .  S
C4769      N4771   1.157       .  T
C4770      N4772   1.157       .  T
C4773      C4774   1.409       .  A
C4773      C4778   1.410       .  A
C4774      C4775   1.417       .  A
C4774      H4779   1.085       .  S
C4775      C4776   1.420       .  A
C4775      C4782   1.443       .  S
C4776      C4777   1.416       .  A
C4777      C4778   1.411       .  A
C4777      H4780   1.084       .  S
C4778      C4781   1.444       .  S
C4781      N4783   1.157       .  T
C4785      C4786   1.408       .  A
C4785      C4790   1.415       .  A
C4786      C4787   1.394       .  A
C4786      H4791   1.085       .  S
C4787      C4788   1.408       .  A
C4787      C4794   1.444       .  S
C4788      C4789   1.404       .  A
C4789      C4790   1.395       .  A
C4789      H4792   1.086       .  S
C4790      C4793   1.445       .  S
C4793      N4795   1.158       .  T
C4794      N4796   1.157       .  T
C4797      C4798   1.404       .  A
C4797      C4802   1.411       .  A
C4798      C4799   1.399       .  A
C4798      H4803   1.084       .  S
C4799      C4800   1.409       .  A
C4799      C4806   1.444       .  S
C4800      C4801   1.401       .  A
C4801      C4802   1.392       .  A
C4801      H4804   1.086       .  S
C4802      C4805   1.446       .  S
C4805      N4807   1.157       .  T
C4806      N4808   1.157       .  T
C4809      C4810   1.390       .  A
C4809      C4814   1.436       .  A
C4810      C4811   1.405       .  A
C4810      H4815   1.086       .  S
C4811      C4812   1.434       .  A
C4811      C4818   1.437       .  S
C4812      C4813   1.383       .  A
C4813      C4814   1.395       .  A
C4813      H4816   1.084       .  S
C4814      C4817   1.436       .  S
C4817      N4819   1.158       .  T
C4818      N4820   1.156       .  T
C4821      C4826   1.406       .  A
C4822      C4823   1.397       .  A
C4822      H4827   1.057       .  S
C4823      C4824   1.391       .  A
C4823      C4830   1.445       .  S
C4825      C4826   1.398       .  A
C4825      H4828   1.082       .  S
C4826      C4829   1.445       .  S
C4829      N4831   1.157       .  T
C4830      N4832   1.157       .  T
C4833      C4834   1.409       .  A
C4833      C4838   1.419       .  A
C4834      C4835   1.408       .  A
C4834      H4839   1.084       .  S
C4835      C4836   1.410       .  A
C4835      C4842   1.444       .  S
C4836      C4837   1.401       .  A
C4837      C4838   1.401       .  A
C4837      H4840   1.086       .  S
C4841      N4843   1.157       .  T
C4842      N4844   1.157       .  T
C4845      C4846   1.414       .  A
C4845      C4850   1.417       .  A
C4846      C4847   1.410       .  A
C4846      H4851   1.084       .  S
C4847      C4848   1.408       .  A
C4847      C4854   1.442       .  S
C4848      C4849   1.403       .  A
C4849      C4850   1.390       .  A
C4849      H4852   1.086       .  S
C4850      C4853   1.447       .  S
C4853      N4855   1.158       .  T
C4857      C4858   1.429       .  A
C4857      C4862   1.401       .  A
C4858      C4859   1.417       .  A
C4858      H4863   1.083       .  S
C4859      C4860   1.402       .  A
C4859      C4866   1.441       .  S
C4860      C4861   1.424       .  A
C4861      C4862   1.407       .  A
C4861      H4864   1.074       .  S
C4862      C4865   1.442       .  S
C4865      N4867   1.157       .  T
C4866      N4868   1.157       .  T
C4869      C4870   1.396       .  A
C4869      C4874   1.403       .  A
C4870      C4871   1.387       .  A
C4870      H4875   1.087       .  S
C4871      C4872   1.411       .  A
C4871      C4878   1.441       .  S
C4872      C4873   1.406       .  A
C4873      C4874   1.396       .  A
C4873      H4876   1.085       .  S
C4874      C4877   1.440       .  S
C4877      N4879   1.156       .  T
C4878      N4880   1.157       .  T
C4881      C4882   1.401       .  A
C4881      C4886   1.414       .  A
C4882      C4883   1.406       .  A
C4882      H4887   1.085       .  S
C4883      C4884   1.414       .  A
C4884      C4885   1.392       .  A
C4885      C4886   1.386       .  A
C4885      H4888   1.087       .  S
C4886      C4889   1.433       .  S
C4889      N4891   1.154       .  T
C4890      N4892   1.156       .  T
C4893      C4894   1.388       .  A
C4893      C4898   1.423       .  A
C4894      C4895   1.392       .  A
C4894      H4899   1.086       .  S
C4895      C4896   1.420       .  A
C4895      C4902   1.434       .  S
C4896      C4897   1.395       .  A
C4897      C4898   1.401       .  A
C4897      H4900   1.085       .  S
C4898      C4901   1.442       .  S
C4901      N4903   1.156       .  T
C4902      N4904   1.155       .  T
C4905      C4906   1.417       .  A
C4905      C4910   1.409       .  A
C4906      C4907   1.402       .  A
C4906      H4911   1.084       .  S
C4907      C4908   1.409       .  A
C4907      C4914   1.446   1_655  S
C4908      C4909   1.412       .  A
C4909      C4910   1.417       .  A
C4909      H4912   1.072       .  S
C4910      C4913   1.441       .  S
C4913      N4915   1.157       .  T
C4917      C4918   1.397       .  A
C4917      C4922   1.412       .  A
C4918      H4923   1.087       .  S
C4919      C4920   1.438       .  A
C4919      C4926   1.437       .  S
C4920      C4921   1.411   1_565  A
C4921      H4924   1.083       .  S
C4922      C4925   1.428       .  S
C4925      N4927   1.153       .  T
C4926      N4928   1.158       .  T
