geometry optimzed in LAMMPS
_audit_creation_date              2020-11-30 
_audit_creation_method            'lammps2cif' 
_symmetry_space_group_name_H-M    'P1' 
_symmetry_Int_Tables_number       1 
_symmetry_cell_setting            triclinic 
loop_ 
_symmetry_equiv_pos_as_xyz 
  x,y,z 
_cell_length_a                    53.6831268 
_cell_length_b                    34.38858588728952 
_cell_length_c                    45.740126861606846 
_cell_angle_alpha                 89.85224365552543 
_cell_angle_beta                  116.12527787043108 
_cell_angle_gamma                 90.07001725615382 
loop_ 
_atom_site_label 
_atom_site_type_symbol 
_atom_site_fract_x 
_atom_site_fract_y 
_atom_site_fract_z 
_atom_site_charge 
C1          C  0.88332236  0.25405726  0.66339383     0.02900
C2          C  0.89727650  0.23111836  0.69133678    -0.13200
C3          C  0.88245600  0.21033982  0.70505015     0.00400
C4          C  0.85336424  0.21285716  0.69045316    -0.11800
C5          C  0.83919500  0.23630582  0.66288876     0.02900
C6          C  0.85437158  0.25728081  0.64988231    -0.11200
H7          H  0.91972239  0.22975877  0.70255163     0.08500
H8          H  0.84168960  0.19640334  0.70048363     0.06000
H9          H  0.84363910  0.27672566  0.62948545     0.05900
Zr10       Zr  0.48997793  0.18491327  0.49073139     2.17500
O11         O  0.48085934  0.11519386  0.48830398    -0.51500
O12         O  0.44128875  0.20306378  0.46417510    -0.74700
O13         O  0.47569269  0.16451328  0.53233532    -0.81500
O14         O  0.50341411  0.17855274  0.41540793    -0.83300
O15         O  0.49779051  0.20234517  0.57701811    -0.78900
O16         O  0.47845188  0.15139335  0.43952705    -0.90500
O17         O  0.43852412  0.26865208  0.45918490    -0.76500
O18         O  0.48659475  0.24364026  0.51612861    -0.86000
O19         O  0.48779629  0.23621785  0.45457094    -0.85700
O20         O  0.53111990  0.18642777  0.54165932    -0.72400
O21         O  0.53209895  0.18046102  0.48459222    -0.84600
Zr22       Zr  0.56744333  0.29480513  0.52458918     2.26400
Zr23       Zr  0.52792965  0.24651095  0.56630598     2.06300
Zr24       Zr  0.52990408  0.23265879  0.44885288     2.10000
Zr25       Zr  0.48496078  0.29484051  0.48038021     1.78800
O26         O  0.55985703  0.19646116  0.43129410    -0.93400
O27         O  0.46504177  0.33064811  0.51090211    -0.41200
O28         O  0.52662653  0.29231391  0.47354494    -0.77800
O29         O  0.52559063  0.29957535  0.53118115    -0.96500
O30         O  0.56996132  0.24356359  0.56069355    -0.89800
O31         O  0.57091163  0.23608730  0.49911185    -0.92600
C32         C  0.42744682  0.23491310  0.45556244     1.01100
C33         C  0.48584888  0.15378007  0.41638957     1.14000
C34         C  0.48104981  0.17489443  0.56151680     1.04800
O35         O  0.50057158  0.28384378  0.58695624    -0.94800
O36         O  0.55788419  0.29631913  0.60209144    -0.90500
O37         O  0.58145681  0.32553588  0.57713682    -0.83700
C38         C  0.57535777  0.32123756  0.60112228     1.11500
O39         O  0.57074788  0.11451286  0.53862080    -0.96800
Zr40       Zr  0.57310304  0.18511138  0.53527404     1.88900
O41         O  0.61659496  0.27896944  0.55273626    -0.73400
O42         O  0.55617610  0.21569276  0.61856263    -0.52700
O43         O  0.59282705  0.16528878  0.59221248    -0.97400
O44         O  0.59772901  0.14994778  0.50970129    -0.54600
O45         O  0.61932833  0.21338181  0.55946062    -0.73900
C46         C  0.63037126  0.24727793  0.56319521     0.98400
O47         O  0.57026441  0.36537386  0.52078400    -0.62000
O48         O  0.50181283  0.26090393  0.39535003    -0.57600
O49         O  0.58271257  0.31558896  0.48460145    -0.94200
O50         O  0.55820497  0.28112626  0.43846722    -0.92700
O51         O  0.46075019  0.31957160  0.42489767    -0.93000
O52         O  0.48849679  0.36465823  0.47413155    -0.91800
C53         C  0.57584958  0.30753473  0.45465679     1.17200
H54         H  0.47192480  0.23317681  0.43378954     0.33200
H55         H  0.52512255  0.32404941  0.54126939     0.44000
H56         H  0.58720815  0.23612645  0.49524885     0.37600
H57         H  0.53124194  0.16465234  0.55511397     0.34000
H58         H  0.44764283  0.34189558  0.49408166     0.25800
H59         H  0.54900470  0.22628488  0.63351073     0.31800
H60         H  0.61155680  0.15533241  0.59714313     0.37700
H61         H  0.45116915  0.29680381  0.41141722     0.32100
H62         H  0.50923869  0.24934995  0.38098889     0.31000
H63         H  0.55643224  0.20806982  0.41002136     0.32700
H64         H  0.60822625  0.17003206  0.50422212     0.31700
H65         H  0.50713219  0.36845291  0.47512546     0.35700
H66         H  0.55956281  0.37168756  0.49738013     0.28400
H67         H  0.46185467  0.11264404  0.48651005     0.32600
H68         H  0.58980705  0.10590873  0.55333579     0.35500
H69         H  0.48318867  0.24914520  0.38797696     0.28100
H70         H  0.55856212  0.37575264  0.53068325     0.41000
H71         H  0.50081083  0.31079199  0.57941507     0.31000
H72         H  0.45880212  0.31034387  0.52157930     0.38600
H73         H  0.58303987  0.14155617  0.48836775     0.30500
H74         H  0.55053874  0.18803562  0.61576787     0.30500
H75         H  0.49322731  0.10507411  0.51023290     0.30800
C76         C  0.17621510  0.19121859  0.34757963     0.02900
C77         C  0.16044644  0.20998353  0.31777728    -0.13200
C78         C  0.17355878  0.23002732  0.30172919     0.00400
C79         C  0.20256397  0.23115993  0.31525477    -0.11800
C80         C  0.21861931  0.21259921  0.34500180     0.02900
C81         C  0.20530969  0.19260379  0.36098611    -0.11200
H82         H  0.13798990  0.20882734  0.30689380     0.08500
H83         H  0.21257385  0.24752391  0.30309929     0.06000
H84         H  0.21764216  0.17844259  0.38409894     0.05900
C85         C  0.67649023  0.45139454  0.34668938     0.02900
C86         C  0.66291604  0.47273158  0.31781952    -0.13200
C87         C  0.67821099  0.49035893  0.30326858     0.00400
C88         C  0.70718717  0.48681206  0.31775131    -0.11800
C89         C  0.72102786  0.46588637  0.34693525     0.02900
C90         C  0.70541433  0.44759353  0.36084561    -0.11200
H91         H  0.64050485  0.47530343  0.30648830     0.08500
H92         H  0.71858671  0.00268877  0.30944414     0.06000
H93         H  0.71575159  0.43040610  0.38282833     0.05900
Zr94       Zr  0.99385855  0.41764369  0.49099599     2.17500
O95         O  0.98758120  0.34735031  0.49034220    -0.51500
O96         O  0.94498010  0.43498138  0.46433269    -0.74700
O97         O  0.97994292  0.39704127  0.53236591    -0.81500
O98         O  0.00456189  0.41185421  0.41445495    -0.83300
O99         O  0.00063091  0.43614681  0.57659289    -0.78900
O100        O  0.98042789  0.38476160  0.43933048    -0.90500
O101        O  0.94034780  0.00006215  0.45744466    -0.76500
O102        O  0.99045246  0.47619998  0.51660296    -0.86000
O103        O  0.99085895  0.46887917  0.45460307    -0.85700
O104        O  0.03507811  0.41958871  0.54187941    -0.72400
O105        O  0.03553605  0.41256551  0.48412382    -0.84600
Zr106      Zr  0.06843182  0.03257960  0.52806437     2.26400
Zr107      Zr  0.03180918  0.47959491  0.56666681     2.06300
Zr108      Zr  0.03247155  0.46489437  0.44816893     2.10000
Zr109      Zr  0.98591885  0.02966933  0.48404167     1.78800
O110        O  0.05863044  0.42946035  0.42480709    -0.93400
O111        O  0.96050682  0.05600664  0.51244469    -0.41200
O112        O  0.02767116  0.02861060  0.47695900    -0.77800
O113        O  0.02656861  0.03662868  0.53461504    -0.96500
O114        O  0.07360165  0.47592839  0.56034251    -0.89800
O115        O  0.07374044  0.46817985  0.49825094    -0.92600
C116        C  0.93090191  0.46659587  0.45529784     1.01100
C117        C  0.98703601  0.38710478  0.41561394     1.14000
C118        C  0.98447590  0.40807431  0.56106007     1.04800
O119        O  0.00275843  0.02121294  0.59215157    -0.94800
O120        O  0.05850875  0.03665996  0.60566611    -0.90500
O121        O  0.08258120  0.06404501  0.58058451    -0.83700
C122        C  0.07625581  0.06105513  0.60452750     1.11500
O123        O  0.07333098  0.34696342  0.53813405    -0.96800
Zr124      Zr  0.07669273  0.41741366  0.53472148     1.88900
O125        O  0.11737308  0.01767712  0.55645860    -0.73400
O126        O  0.05808002  0.44929994  0.61975432    -0.52700
O127        O  0.09840728  0.39565070  0.59122481    -0.97400
O128        O  0.09965620  0.38345171  0.50654658    -0.54600
O129        O  0.12308679  0.44548707  0.55779291    -0.73900
C130        C  0.13346250  0.47976985  0.56092314     0.98400
O131        O  0.07149165  0.10301449  0.52374755    -0.62800
O132        O  0.00577911  0.99708658  0.39989076    -0.57600
O133        O  0.08455554  0.05175713  0.48815288    -0.94200
O134        O  0.06261826  0.01386061  0.44349219    -0.92700
O135        O  0.96473307  0.05884199  0.42995964    -0.93000
O136        O  0.98637434  0.10049747  0.48415648    -0.91800
C137        C  0.07960173  0.04116867  0.45917233     1.17200
H138        H  0.97487764  0.46591872  0.43391090     0.33200
H139        H  0.02570483  0.06132491  0.54423098     0.44000
H140        H  0.08994192  0.46799619  0.49417276     0.37600
H141        H  0.03524716  0.39786604  0.55540424     0.34000
H142        H  0.94434018  0.06948106  0.49535415     0.25800
H143        H  0.04875286  0.45797471  0.63305334     0.31800
H144        H  0.11780921  0.38946765  0.59587287     0.37700
H145        H  0.96724465  0.03932007  0.41562243     0.32100
H146        H  0.00547683  0.52454637  0.40142785     0.31000
H147        H  0.04834969  0.43385428  0.40103005     0.32700
H148        H  0.11277696  0.40252372  0.50482312     0.31700
H149        H  0.00615270  0.10754935  0.49191006     0.35700
H150        H  0.05997109  0.10904007  0.50044148     0.28400
H151        H  0.96955594  0.34304365  0.49091428     0.32600
H152        H  0.09270175  0.33749168  0.54937259     0.35500
H153        H  0.01541669  0.98849146  0.38688679     0.28100
H154        H  0.06076567  0.11397435  0.53470711     0.41000
H155        H  0.99750604  0.04534606  0.57897280     0.31000
H156        H  0.95241075  0.03310792  0.51827761     0.38600
H157        H  0.08509041  0.38044280  0.48393005     0.30500
H158        H  0.05382275  0.42117021  0.61626286     0.30500
H159        H  0.00175206  0.33812331  0.51173503     0.30800
C160        C  0.38299190  0.02401153  0.66931443     0.02900
C161        C  0.39928504  0.49857083  0.69929388    -0.13200
C162        C  0.38448950  0.47613344  0.71210605     0.00400
C163        C  0.35540567  0.47527509  0.69568893    -0.11800
C164        C  0.34126269  0.49690813  0.66719051     0.02900
C165        C  0.35393648  0.02153299  0.65371354    -0.11200
H166        H  0.42173508  0.49965823  0.71193825     0.08500
H167        H  0.34369598  0.45745255  0.70482522     0.06000
H168        H  0.34225361  0.03719408  0.63118028     0.05900
C169        C  0.88835313  0.17922917  0.17299862     0.02900
C170        C  0.90242402  0.19977263  0.20223469    -0.13200
C171        C  0.88774000  0.22288716  0.21454986     0.00400
C172        C  0.85871291  0.22463157  0.19792194    -0.11800
C173        C  0.84418623  0.20292259  0.16941554     0.02900
C174        C  0.85922630  0.18024633  0.15717400    -0.11200
H175        H  0.92487189  0.19869510  0.21494209     0.08500
H176        H  0.84750227  0.24328651  0.20708407     0.06000
H177        H  0.84827120  0.16408388  0.13480315     0.05900
Zr178      Zr  0.57309359  0.18294279  0.02745690     2.17500
O179        O  0.58018424  0.11277771  0.03129810    -0.51500
O180        O  0.62147395  0.20051095  0.04828651    -0.74700
O181        O  0.58607148  0.16011383  0.98548072    -0.81500
O182        O  0.56824250  0.18871729  0.10817645    -0.83300
O183        O  0.56024483  0.19269270  0.93859043    -0.78900
O184        O  0.58938391  0.15646016  0.08210271    -0.90500
O185        O  0.62511472  0.26618516  0.04901681    -0.76500
O186        O  0.57316899  0.23786832  0.99596847    -0.86000
O187        O  0.57830248  0.23829533  0.06084414    -0.85700
O188        O  0.52949319  0.17961662  0.97983494    -0.72400
O189        O  0.53418423  0.18197836  0.04010556    -0.84600
Zr190      Zr  0.49571704  0.29238680  0.99305914     2.26400
Zr191      Zr  0.52941189  0.23603021  0.94888130     2.06300
Zr192      Zr  0.53889888  0.23884979  0.07212536     2.10000
Zr193      Zr  0.57843462  0.29298956  0.02936784     1.78800
O194        O  0.51484135  0.20714688  0.10007058    -0.93400
O195        O  0.59813207  0.32407876  0.99639127    -0.41200
O196        O  0.53913407  0.29493991  0.04123809    -0.77800
O197        O  0.53503796  0.29312296  0.98111613    -0.96500
O198        O  0.49031070  0.23630250  0.96052039    -0.89800
O199        O  0.49535490  0.23763645  0.02487602    -0.92600
C200        C  0.63572643  0.23192221  0.05396375     1.01100
C201        C  0.58485020  0.16252866  0.10705116     1.14000
C202        C  0.57913445  0.16807483  0.95538165     1.04800
O203        O  0.54985351  0.26908743  0.91758195    -0.94800
O204        O  0.49799724  0.28360560  0.91159118    -0.90500
O205        O  0.47790219  0.31784741  0.93803974    -0.83700
C206        C  0.48169661  0.31014260  0.91284812     1.11500
O207        O  0.49340411  0.11110902  0.99899181    -0.96800
Zr208      Zr  0.49061260  0.18167414  0.99255539     1.88900
O209        O  0.44690412  0.27483517  0.96883011    -0.73400
O210        O  0.49826581  0.19728486  0.90266864    -0.52700
O211        O  0.46820969  0.15110584  0.93919610    -0.97400
O212        O  0.47041229  0.15341851  0.02628416    -0.54600
O213        O  0.44412092  0.20887874  0.96938560    -0.73900
C214        C  0.43314833  0.24287181  0.96274282     0.98400
O215        O  0.49165560  0.36316793  0.98980415    -0.62800
O216        O  0.57122980  0.27272812  0.12083133    -0.57600
O217        O  0.48326311  0.31809723  0.03428581    -0.94200
O218        O  0.51018851  0.28713007  0.08155080    -0.92700
O219        O  0.60261350  0.31956787  0.08410072    -0.93000
O220        O  0.57573671  0.36370506  0.02903899    -0.91800
C221        C  0.49148695  0.31207889  0.06489541     1.17200
H222        H  0.59522709  0.23703272  0.08080958     0.33200
H223        H  0.53441840  0.31599210  0.96849663     0.44000
H224        H  0.48015982  0.23928027  0.03075325     0.37600
H225        H  0.52867410  0.15612723  0.96784736     0.34000
H226        H  0.61576610  0.33570531  0.01233998     0.25800
H227        H  0.50442758  0.20233301  0.88555456     0.31800
H228        H  0.44930767  0.14447557  0.93630418     0.37700
H229        H  0.62170736  0.32480796  0.08700334     0.32100
H230        H  0.56600223  0.30050634  0.11663370     0.31000
H231        H  0.52309104  0.21858946  0.12217753     0.32700
H232        H  0.45050119  0.14977567  0.01142925     0.31700
H233        H  0.55769686  0.37000045  0.01050642     0.35700
H234        H  0.50243651  0.37248472  0.01241411     0.28400
H235        H  0.59924619  0.10893626  0.03359847     0.32600
H236        H  0.47445645  0.10115614  0.98545443     0.35500
H237        H  0.56568560  0.26496929  0.13798791     0.28100
H238        H  0.50289261  0.37157090  0.97862010     0.41000
H239        H  0.56203209  0.28917076  0.93252330     0.31000
H240        H  0.60395698  0.30224133  0.98674128     0.38600
H241        H  0.47074096  0.17432653  0.04125917     0.30500
H242        H  0.50359479  0.16991845  0.90918745     0.30500
H243        H  0.56787747  0.10265040  0.00938540     0.30800
C244        C  0.18061928  0.26770112  0.84877453     0.02900
C245        C  0.16521097  0.24708596  0.81994871    -0.13200
C246        C  0.17856091  0.22758031  0.80388143     0.00400
C247        C  0.20770482  0.22887827  0.81706922    -0.11800
C248        C  0.22348533  0.24913045  0.84612491     0.02900
C249        C  0.20967877  0.26777050  0.86207575    -0.11200
H250        H  0.14279906  0.24613193  0.81009516     0.08500
H251        H  0.21807257  0.21433456  0.80450668     0.06000
H252        H  0.22156076  0.28206528  0.88518126     0.05900
C253        C  0.68011029  0.01827496  0.85046230     0.02900
C254        C  0.70926952  0.01790169  0.86715011    -0.13200
C255        C  0.72454259  0.50147940  0.84686443     0.00400
C256        C  0.70906686  0.48046301  0.81836078    -0.11800
C257        C  0.67994256  0.48280700  0.80288929     0.02900
C258        C  0.66660076  0.50705440  0.81635745    -0.11200
H259        H  0.71980221  0.03589921  0.88852088     0.08500
H260        H  0.71981628  0.46165267  0.80868968     0.06000
H261        H  0.64428202  0.51051966  0.80416122     0.05900
C262        C  0.38967681  0.45842136  0.16999331     0.02900
C263        C  0.36068320  0.45544290  0.15504149    -0.13200
C264        C  0.34477841  0.47393938  0.16839114     0.00400
C265        C  0.35828965  0.49598238  0.19694893    -0.11800
C266        C  0.38733435  0.49856497  0.21238029     0.02900
C267        C  0.40291002  0.47947975  0.19896391    -0.11200
H268        H  0.35050651  0.43829468  0.13306464     0.08500
H269        H  0.35051771  0.00345757  0.21190970     0.06000
H270        H  0.42535105  0.48009749  0.21169706     0.05900
Zr271      Zr  0.07325147  0.42618474  0.02687023     2.17500
O272        O  0.07871841  0.35576269  0.02795740    -0.51500
O273        O  0.12199983  0.44383210  0.05179073    -0.74700
O274        O  0.08868179  0.40539044  0.98713108    -0.81500
O275        O  0.06129928  0.41998796  0.10224048    -0.83300
O276        O  0.06569612  0.44165101  0.94143287    -0.78900
O277        O  0.08594941  0.39277382  0.07803458    -0.90500
O278        O  0.12540725  0.00619931  0.05185809    -0.76500
O279        O  0.07661952  0.48474803  0.00114997    -0.86000
O280        O  0.07605033  0.47755698  0.06289479    -0.85700
O281        O  0.03234909  0.42730147  0.97575320    -0.72400
O282        O  0.03138649  0.42082906  0.03322945    -0.84600
Zr283      Zr  0.99603860  0.03047541  0.98935000     2.26400
Zr284      Zr  0.03552776  0.48726561  0.95101352     2.06300
Zr285      Zr  0.03402929  0.47348384  0.06848861     2.10000
Zr286      Zr  0.07866398  0.03171741  0.03035785     1.78800
O287        O  0.00625166  0.43781957  0.08965679    -0.93400
O288        O  0.09861001  0.06420985  0.99820145    -0.41200
O289        O  0.03789564  0.02941307  0.03935727    -0.77800
O290        O  0.03684790  0.03545347  0.98061479    -0.96500
O291        O  0.99361534  0.48348941  0.95682863    -0.89800
O292        O  0.99273945  0.47584527  0.01831983    -0.92600
C293        C  0.13584418  0.47571905  0.05965299     1.01100
C294        C  0.07873418  0.39509559  0.10122572     1.14000
C295        C  0.08285641  0.41478851  0.95769147     1.04800
O296        O  0.05952094  0.02412612  0.92561796    -0.94800
O297        O  0.00025152  0.02728939  0.90849815    -0.90500
O298        O  0.98031926  0.06023831  0.93585160    -0.83700
C299        C  0.98400200  0.05344584  0.91042027     1.11500
O300        O  0.99400897  0.35541498  0.97418121    -0.96800
Zr301      Zr  0.99051239  0.42487815  0.98231344     1.88900
O302        O  0.94734203  0.01341824  0.96481855    -0.73400
O303        O  0.00892097  0.45796165  0.89782113    -0.52700
O304        O  0.96637946  0.40264782  0.92614062    -0.97400
O305        O  0.96859894  0.38939460  0.01102638    -0.54600
O306        O  0.94404927  0.45186021  0.95862697    -0.73900
C307        C  0.93298976  0.48568375  0.95449195     0.98400
O308        O  0.99086433  0.10087889  0.99072402    -0.62800
O309        O  0.06499768  0.00182120  0.11604515    -0.57600
O310        O  0.98129548  0.04950959  0.03052648    -0.94200
O311        O  0.00543833  0.01303687  0.07570369    -0.92700
O312        O  0.10285665  0.05648795  0.08567030    -0.93000
O313        O  0.07620667  0.10215083  0.03381665    -0.91800
C314        C  0.98738878  0.03913759  0.05992518     1.17200
H315        H  0.09205433  0.47471291  0.08367380     0.33200
H316        H  0.03662277  0.05975925  0.96988144     0.44000
H317        H  0.97651200  0.47546168  0.02234586     0.37600
H318        H  0.03241526  0.40553454  0.96245450     0.34000
H319        H  0.11561572  0.07696632  0.01442072     0.25800
H320        H  0.01943458  0.46420240  0.88525310     0.31800
H321        H  0.96533543  0.42577691  0.91271544     0.37700
H322        H  0.08823894  0.05932881  0.09316637     0.32100
H323        H  0.05375836  0.49558209  0.13508303     0.31000
H324        H  0.01761489  0.43735443  0.11356794     0.32700
H325        H  0.95681475  0.40873338  0.01502428     0.31700
H326        H  0.05800430  0.10931908  0.01593804     0.35700
H327        H  0.00065281  0.10812614  0.01400882     0.28400
H328        H  0.09810088  0.35126887  0.03162364     0.32600
H329        H  0.97517760  0.34476573  0.96778803     0.35500
H330        H  0.08321665  0.98863908  0.12425920     0.28100
H331        H  0.00276769  0.11174505  0.98123053     0.41000
H332        H  0.05551957  0.05093337  0.93016049     0.31000
H333        H  0.10553570  0.04290003  0.98923035     0.38600
H334        H  0.98384721  0.38395781  0.03283863     0.30500
H335        H  0.01116633  0.42956587  0.90164952     0.30500
H336        H  0.06711560  0.34709071  0.00534750     0.30800
C337        C  0.31407609  0.47055966  0.15188610    -0.20100
C338        C  0.29857573  0.46147322  0.16923594     0.36100
C339        C  0.26950217  0.45944369  0.15244121    -0.26100
C340        C  0.25573316  0.46596376  0.11876448     0.02600
C341        C  0.27117709  0.47390403  0.10128352     0.27400
C342        C  0.30017156  0.47620455  0.11802153    -0.25200
N343        N  0.31235368  0.45425016  0.20371796    -0.82600
H344        H  0.25744647  0.45345518  0.16570947     0.13200
C345        C  0.22505956  0.46727092  0.10249188     0.02500
N346        N  0.25726459  0.48007746  0.06666353    -0.81100
H347        H  0.31197018  0.48314882  0.10462990     0.18000
C348        C  0.21312860  0.00054447  0.08727968    -0.26000
C349        C  0.18406524  0.00320072  0.07113865     0.36100
C350        C  0.16660500  0.47326771  0.07344129    -0.20000
C351        C  0.17986411  0.43781652  0.08688660    -0.25300
C352        C  0.20891963  0.43447562  0.10128022     0.27400
H353        H  0.22562256  0.02545018  0.08755798     0.13200
N354        N  0.17128318  0.03865633  0.05464030    -0.82500
H355        H  0.16757687  0.41266564  0.08656951     0.18000
N356        N  0.22212195  0.39801668  0.11471394    -0.81100
H357        H  0.18625331  0.05983612  0.05781208     0.33700
H358        H  0.16130590  0.03264393  0.02971445     0.38200
H359        H  0.20730420  0.37677351  0.11196941     0.33600
H360        H  0.23234780  0.38876434  0.10109120     0.30300
H361        H  0.27160191  0.48602272  0.05749960     0.33600
H362        H  0.24742918  0.45405099  0.05594439     0.30300
H363        H  0.32443662  0.42922932  0.20748184     0.38200
H364        H  0.29792648  0.44823740  0.21273408     0.33700
C365        C  0.75510362  0.49913745  0.86266281    -0.20100
C366        C  0.77077697  0.98800371  0.90646500     0.36100
C367        C  0.79994753  0.98864410  0.92068804    -0.26100
C368        C  0.81338095  0.49681682  0.89193025     0.02600
C369        C  0.79879676  0.50949509  0.85944899     0.27400
C370        C  0.76968967  0.51023449  0.84498898    -0.25200
N371        N  0.75649062  0.97894786  0.92583177    -0.82600
H372        H  0.81175149  0.98321039  0.94654498     0.13200
C373        C  0.84396350  0.49463003  0.90767306     0.02500
N374        N  0.81367248  0.52184496  0.84150226    -0.81100
H375        H  0.75830726  0.52013146  0.82005372     0.18000
C376        C  0.85704260  0.46663388  0.89708137    -0.26000
C377        C  0.88606411  0.46295277  0.91187625     0.36100
C378        C  0.90229120  0.48818089  0.93776955    -0.20000
C379        C  0.89065305  0.01762916  0.94851855    -0.25300
C380        C  0.86168185  0.02168816  0.93541856     0.27400
H381        H  0.84446965  0.44734589  0.87735785     0.13200
N382        N  0.89897703  0.43462833  0.89989390    -0.82500
H383        H  0.90373085  0.04106968  0.96302290     0.18000
N384        N  0.84951756  0.05649320  0.94085690    -0.81100
H385        H  0.88423111  0.42150122  0.87874408     0.33700
H386        H  0.90665813  0.41241474  0.91723158     0.38200
H387        H  0.86496388  0.07602751  0.95527875     0.33600
H388        H  0.83845699  0.07004725  0.91829146     0.30300
H389        H  0.79985991  0.53036707  0.81792709     0.33600
H390        H  0.82512210  0.54656286  0.85301410     0.30300
H391        H  0.74599981  0.95266168  0.91730503     0.38200
H392        H  0.77066793  0.97424524  0.95010841     0.33700
C393        C  0.16634107  0.28929657  0.86503744    -0.20100
C394        C  0.17228601  0.32891908  0.87340196     0.36100
C395        C  0.15849868  0.34834045  0.88896844    -0.26100
C396        C  0.13881323  0.32906687  0.89600646     0.02600
C397        C  0.13276117  0.28964255  0.88773358     0.27400
C398        C  0.14650092  0.27011199  0.87210951    -0.25200
N399        N  0.19197786  0.34939037  0.86562892    -0.82600
H400        H  0.16287207  0.37874532  0.89538707     0.13200
C401        C  0.12462934  0.35069747  0.91206990     0.02500
N402        N  0.11281972  0.26971796  0.89541726    -0.81100
H403        H  0.14205321  0.23969053  0.86585204     0.18000
C404        C  0.09727010  0.36298592  0.89354180    -0.26000
C405        C  0.08312265  0.38389918  0.90790162     0.36100
C406        C  0.09683049  0.39280116  0.94145901    -0.20000
C407        C  0.12421118  0.37999092  0.95999917    -0.25300
C408        C  0.13831306  0.35917036  0.94552769     0.27400
H409        H  0.08694540  0.35605940  0.86782390     0.13200
N410        N  0.05474787  0.39526841  0.88871981    -0.82500
H411        H  0.13474914  0.38668765  0.98575224     0.18000
N412        N  0.16650494  0.34681840  0.96449269    -0.81100
H413        H  0.04799397  0.38714822  0.86439885     0.33700
H414        H  0.04264939  0.37965657  0.89740402     0.38200
H415        H  0.17367355  0.35568498  0.98869932     0.33600
H416        H  0.16667705  0.31641514  0.96470346     0.30300
H417        H  0.11072552  0.24079787  0.88768052     0.33600
H418        H  0.12064562  0.26897743  0.92077606     0.30300
H419        H  0.18402067  0.35035158  0.84026075     0.38200
H420        H  0.19403524  0.37821129  0.87358102     0.33700
C421        C  0.40248090  0.24522489  0.94599700    -0.20100
C422        C  0.38571328  0.21919017  0.95342897     0.36100
C423        C  0.35671933  0.22086094  0.93542464    -0.26100
C424        C  0.34406185  0.24763263  0.90985015     0.02600
C425        C  0.36085657  0.27385286  0.90257951     0.27400
C426        C  0.38984123  0.27274136  0.92105429    -0.25200
N427        N  0.39815663  0.19145711  0.97944654    -0.82600
H428        H  0.34385745  0.20129700  0.94150810     0.13200
C429        C  0.31320623  0.24819404  0.89146308     0.02500
N430        N  0.34847905  0.30087291  0.87600304    -0.81100
H431        H  0.40270956  0.29251604  0.91514941     0.18000
C432        C  0.29880638  0.28309675  0.88872704    -0.26000
C433        C  0.26965418  0.28447265  0.87288671     0.36100
C434        C  0.25440511  0.24983215  0.86046676    -0.20000
C435        C  0.26886688  0.21509427  0.86256742    -0.25300
C436        C  0.29804334  0.21399448  0.87756531     0.27400
H437        H  0.31038060  0.30937930  0.89933432     0.13200
N438        N  0.25552111  0.32096208  0.86924454    -0.82500
H439        H  0.25734956  0.18849037  0.85297465     0.18000
N440        N  0.31235527  0.17824828  0.87883347    -0.81100
H441        H  0.26972313  0.34354661  0.87974283     0.33700
H442        H  0.24504350  0.32704872  0.84433227     0.38200
H443        H  0.29822240  0.15577555  0.86764947     0.33600
H444        H  0.32351563  0.18223328  0.86522382     0.30300
H445        H  0.36367795  0.31812004  0.87392734     0.33600
H446        H  0.33916154  0.28470128  0.85453372     0.30300
H447        H  0.40801139  0.20703132  0.00117343     0.38200
H448        H  0.38296120  0.17433912  0.98165344     0.33700
C449        C  0.66354851  0.04208705  0.86278201    -0.20100
C450        C  0.64084908  0.02592712  0.86650431     0.36100
C451        C  0.62602582  0.04905538  0.87878124    -0.26100
C452        C  0.63398443  0.08748033  0.88849864     0.02600
C453        C  0.65640187  0.10387146  0.88462626     0.27400
C454        C  0.67098061  0.08104089  0.87178533    -0.25200
N455        N  0.63895099  0.49247828  0.85964141    -0.82600
H456        H  0.60888331  0.03661001  0.88209170     0.13200
C457        C  0.61999908  0.10915155  0.90505667     0.02500
N458        N  0.66435663  0.14350981  0.89406333    -0.81100
H459        H  0.68823848  0.09365442  0.86882680     0.18000
C460        C  0.63346640  0.11287432  0.93900189    -0.26000
C461        C  0.62092415  0.13259231  0.95597575     0.36100
C462        C  0.59376115  0.14773155  0.93862875    -0.20000
C463        C  0.58052022  0.14427993  0.90442433    -0.25300
C464        C  0.59351215  0.12554393  0.88748205     0.27400
H465        H  0.65403301  0.10061439  0.95225565     0.13200
N466        N  0.63600295  0.13807466  0.99057316    -0.82500
H467        H  0.55990495  0.15620194  0.89078368     0.18000
N468        N  0.58001080  0.12315804  0.85254242    -0.81100
H469        H  0.65549592  0.12481009  0.99952881     0.33700
H470        H  0.63964519  0.16789537  0.99473456     0.38200
H471        H  0.56060493  0.13671610  0.84323831     0.33600
H472        H  0.59198644  0.13893313  0.84377408     0.30300
H473        H  0.68132806  0.15118856  0.88980314     0.33600
H474        H  0.64785602  0.16125846  0.87900847     0.30300
H475        H  0.65615718  0.47536364  0.87388244     0.38200
H476        H  0.62309165  0.48450635  0.86586269     0.33700
C477        C  0.47792646  0.33472794  0.08180410    -0.20100
C478        C  0.48501913  0.32943108  0.11539082     0.36100
C479        C  0.46975033  0.34880439  0.12917496    -0.26100
C480        C  0.44843766  0.37452659  0.11076449     0.02600
C481        C  0.44184354  0.38111224  0.07782843     0.27400
C482        C  0.45656939  0.36115457  0.06363543    -0.25200
N483        N  0.50777778  0.30483398  0.13562805    -0.82600
H484        H  0.47488978  0.34455446  0.15468792     0.13200
C485        C  0.43379240  0.39552371  0.12665929     0.02500
N486        N  0.42004329  0.40783196  0.05894133    -0.81100
H487        H  0.45100962  0.36603227  0.03810721     0.18000
C488        C  0.43830864  0.43552531  0.13214969    -0.26000
C489        C  0.42441304  0.45686621  0.14660301     0.36100
C490        C  0.40594550  0.43737792  0.15610017    -0.20000
C491        C  0.40159082  0.39723969  0.15067494    -0.25300
C492        C  0.41520447  0.37611653  0.13580897     0.27400
H493        H  0.45254296  0.45014022  0.12478744     0.13200
N494        N  0.42781452  0.49836445  0.14989672    -0.82500
H495        H  0.38723290  0.38246681  0.15775268     0.18000
N496        N  0.40998685  0.33524117  0.12954504    -0.81100
H497        H  0.43990078  0.50833015  0.13867385     0.33700
H498        H  0.43915154  0.50464316  0.17459931     0.38200
H499        H  0.39577184  0.32542818  0.13783600     0.33600
H500        H  0.40056557  0.33143038  0.10428955     0.30300
H501        H  0.41786482  0.40972591  0.03511417     0.33600
H502        H  0.40143174  0.39645570  0.05739548     0.30300
H503        H  0.52601442  0.31833547  0.13792270     0.38200
H504        H  0.50929164  0.30292508  0.15917232     0.33700
C505        C  0.81342247  0.20547775  0.15144818    -0.20100
C506        C  0.79636530  0.20269779  0.16770639     0.36100
C507        C  0.76752156  0.20703274  0.14989581    -0.26100
C508        C  0.75526420  0.21296370  0.11611148     0.02600
C509        C  0.77207349  0.21444877  0.09963468     0.27400
C510        C  0.80100420  0.21110955  0.11750545    -0.25200
N511        N  0.80830356  0.19486687  0.20209266    -0.82600
H512        H  0.75442636  0.20555247  0.16236105     0.13200
C513        C  0.72469746  0.21708289  0.09844121     0.02500
N514        N  0.75966006  0.21908182  0.06484641    -0.81100
H515        H  0.81394576  0.21324593  0.10489171     0.18000
C516        C  0.71311243  0.25221195  0.08270846    -0.26000
C517        C  0.68416478  0.25783812  0.06735059     0.36100
C518        C  0.66645851  0.22761335  0.06805568    -0.20000
C519        C  0.67834867  0.19214568  0.08323682    -0.25300
C520        C  0.70716384  0.18658153  0.09830735     0.27400
H521        H  0.72677704  0.27548715  0.08280372     0.13200
N522        N  0.67286476  0.29401078  0.05112799    -0.82500
H523        H  0.66515081  0.16865176  0.08390700     0.18000
N524        N  0.71876882  0.15011063  0.11370788    -0.81100
H525        H  0.68873985  0.31329129  0.05355762     0.33700
H526        H  0.66185523  0.28812012  0.02626137     0.38200
H527        H  0.70307858  0.13072070  0.11169666     0.33600
H528        H  0.72886799  0.13775830  0.10097691     0.30300
H529        H  0.77491454  0.21974764  0.05648143     0.33600
H530        H  0.74754917  0.19442541  0.05460555     0.30300
H531        H  0.81728308  0.16721926  0.20592426     0.38200
H532        H  0.79290508  0.19373777  0.21022006     0.33700
C533        C  0.90391108  0.15832393  0.15784399    -0.20100
C534        C  0.92499352  0.17701698  0.15246761     0.36100
C535        C  0.93852087  0.15670359  0.13696774    -0.26100
C536        C  0.93076687  0.11861889  0.12555305     0.02600
C537        C  0.90941039  0.10012183  0.13054763     0.27400
C538        C  0.89648296  0.12000138  0.14697755    -0.25200
N539        N  0.93210689  0.21686134  0.16200046    -0.82600
H540        H  0.95504565  0.17083121  0.13343937     0.13200
C541        C  0.94516093  0.09853955  0.10842252     0.02500
N542        N  0.90056714  0.06151047  0.11838472    -0.81100
H543        H  0.88022160  0.10572101  0.15094785     0.18000
C544        C  0.95654496  0.06148275  0.11893705    -0.26000
C545        C  0.96962486  0.04100934  0.10299963     0.36100
C546        C  0.97267773  0.05878364  0.07679108    -0.20000
C547        C  0.96146764  0.09605665  0.06646975    -0.25300
C548        C  0.94746873  0.11587628  0.08167792     0.27400
H549        H  0.95495567  0.04823534  0.13956628     0.13200
N550        N  0.97922612  0.00196412  0.11297181    -0.82500
H551        H  0.96357185  0.10986339  0.04635459     0.18000
N552        N  0.93530487  0.15334003  0.06979069    -0.81100
H553        H  0.97559791  0.99346031  0.13272545     0.33700
H554        H  0.96730854  0.98351504  0.09370611     0.38200
H555        H  0.93895865  0.16205760  0.05010624     0.33600
H556        H  0.91381237  0.15046234  0.06092569     0.30300
H557        H  0.88474213  0.05208362  0.12416191     0.33600
H558        H  0.89205404  0.06276339  0.09297910     0.30300
H559        H  0.91471774  0.23388363  0.14820384     0.38200
H560        H  0.94795535  0.22626721  0.15624963     0.33700
C561        C  0.39940008  0.45328612  0.74244184    -0.20100
C562        C  0.39152141  0.45482941  0.76809866     0.36100
C563        C  0.40545871  0.43153312  0.79580293    -0.26100
C564        C  0.42756004  0.40748724  0.79884673     0.02600
C565        C  0.43587073  0.40656772  0.77354517     0.27400
C566        C  0.42159205  0.42932420  0.74553155    -0.25200
N567        N  0.36956377  0.48025947  0.76605430    -0.82600
H568        H  0.39895789  0.43196298  0.81511643     0.13200
C569        C  0.44133219  0.38281853  0.82836296     0.02500
N570        N  0.45875225  0.38255232  0.77641765    -0.81100
H571        H  0.42761146  0.42806665  0.72583772     0.18000
C572        C  0.44303962  0.34253635  0.82474988    -0.26000
C573        C  0.45586791  0.31810329  0.85196187     0.36100
C574        C  0.46684615  0.33428477  0.88349529    -0.20000
C575        C  0.46450746  0.37443313  0.88715890    -0.25300
C576        C  0.45220262  0.39897633  0.85991935     0.27400
H577        H  0.43413531  0.33008309  0.80053833     0.13200
N578        N  0.45749336  0.27692473  0.84769852    -0.82500
H579        H  0.47312042  0.38686248  0.91137932     0.18000
N580        N  0.45110543  0.44026080  0.86414918    -0.81100
H581        H  0.44861157  0.26982067  0.82296130     0.33700
H582        H  0.44556419  0.26309310  0.85757465     0.38200
H583        H  0.45987041  0.44737744  0.88888110     0.33600
H584        H  0.46337994  0.45356281  0.85449156     0.30300
H585        H  0.46206430  0.38498118  0.75560902     0.33600
H586        H  0.47661163  0.39317436  0.79585495     0.30300
H587        H  0.37599247  0.50883060  0.76542607     0.38200
H588        H  0.36633589  0.47783745  0.78692163     0.33700
C589        C  0.16381098  0.48364879  0.57728780    -0.20100
C590        C  0.17977513  0.47255991  0.61019378     0.36100
C591        C  0.20867273  0.47672711  0.62410429    -0.26100
C592        C  0.22190209  0.49199641  0.60613935     0.02600
C593        C  0.20599331  0.50384670  0.57365708     0.27400
C594        C  0.17703712  0.49966092  0.55956275    -0.25200
N595        N  0.16756321  0.45757604  0.63033330    -0.82600
H596        H  0.22050264  0.96579203  0.65152897     0.13200
C597        C  0.25252242  0.49458183  0.62143701     0.02500
N598        N  0.21936882  0.52001851  0.55520858    -0.81100
H599        H  0.16469969  0.50855951  0.53451334     0.18000
C600        C  0.26731797  0.47251611  0.60856936    -0.26000
C601        C  0.29641429  0.47354133  0.62276914     0.36100
C602        C  0.31077960  0.49644835  0.65066763    -0.20000
C603        C  0.29552860  0.01748188  0.66761138    -0.25300
C604        C  0.26646715  0.01768743  0.65418151     0.27400
H605        H  0.25608124  0.45428173  0.58752576     0.13200
N606        N  0.31146660  0.45073961  0.60955706    -0.82500
H607        H  0.30759647  0.03236318  0.69039636     0.18000
N608        N  0.25255309  0.03786932  0.67024822    -0.81100
H609        H  0.29776682  0.43483035  0.58942676     0.33700
H610        H  0.32177495  0.46998089  0.60088188     0.38200
H611        H  0.26696003  0.05076395  0.69174710     0.33600
H612        H  0.24112351  0.06051889  0.65494396     0.30300
H613        H  0.20473207  0.52701121  0.53160051     0.33600
H614        H  0.22871633  0.54613753  0.56631095     0.30300
H615        H  0.14597105  0.45685277  0.61809449     0.38200
H616        H  0.17441064  0.97429129  0.65672755     0.33700
C617        C  0.16220823  0.20456832  0.77397828    -0.20100
C618        C  0.13903823  0.22039988  0.74716170     0.36100
C619        C  0.12402111  0.19701981  0.71971647    -0.26100
C620        C  0.13195267  0.15846546  0.71840252     0.02600
C621        C  0.15501094  0.14267324  0.74511995     0.27400
C622        C  0.16991577  0.16587647  0.77257063    -0.25200
N623        N  0.13122703  0.26029097  0.74760333    -0.82600
H624        H  0.10644723  0.20909723  0.69895297     0.13200
C625        C  0.11682387  0.13519546  0.68842561     0.02500
N626        N  0.16313584  0.10304643  0.74420272    -0.81100
H627        H  0.18748135  0.15356109  0.79320072     0.18000
C628        C  0.13076967  0.12411898  0.67010084    -0.26000
C629        C  0.11798294  0.10028518  0.64251993     0.36100
C630        C  0.09040710  0.08741251  0.63285916    -0.20000
C631        C  0.07630682  0.09923008  0.65099488    -0.25300
C632        C  0.08925397  0.12294769  0.67870478     0.27400
H633        H  0.15196873  0.13368280  0.67774951     0.13200
N634        N  0.13320223  0.08841952  0.62487241    -0.82500
H635        H  0.05512994  0.08975515  0.64361091     0.18000
N636        N  0.07471613  0.13412710  0.69729376    -0.81100
H637        H  0.15299036  0.10088131  0.63491751     0.33700
H638        H  0.13610637  0.05832959  0.62772930     0.38200
H639        H  0.05453978  0.12294794  0.68677514     0.33600
H640        H  0.08490977  0.12129812  0.72031002     0.30300
H641        H  0.18068239  0.09595873  0.76562481     0.33600
H642        H  0.14706597  0.08516215  0.74335210     0.30300
H643        H  0.14747349  0.27772303  0.74836817     0.38200
H644        H  0.11378996  0.26733939  0.72605362     0.33700
C645        C  0.97344385  0.35999797  0.38739950    -0.20100
C646        C  0.95241618  0.33318687  0.38494985     0.36100
C647        C  0.93931276  0.31036928  0.35676298    -0.26100
C648        C  0.94696285  0.31300457  0.33128979     0.02600
C649        C  0.96832955  0.33845137  0.33387975     0.27400
C650        C  0.98121774  0.36180922  0.36170665    -0.25200
N651        N  0.94421701  0.32909607  0.41077717    -0.82600
H652        H  0.92294148  0.29039201  0.35454234     0.13200
C653        C  0.93204737  0.28942219  0.30164179     0.02500
N654        N  0.97677545  0.34043943  0.30812545    -0.81100
H655        H  0.99740098  0.38163743  0.36313758     0.18000
C656        C  0.91469934  0.30818927  0.27251413    -0.26000
C657        C  0.90010780  0.28689059  0.24391388     0.36100
C658        C  0.90285374  0.24613695  0.24437373    -0.20000
C659        C  0.92048320  0.22736730  0.27346164    -0.25300
C660        C  0.93516046  0.24869313  0.30219793     0.27400
H661        H  0.91249255  0.33954411  0.27201567     0.13200
N662        N  0.88300450  0.30677690  0.21424783    -0.82500
H663        H  0.92268588  0.19603136  0.27371291     0.18000
N664        N  0.95334629  0.22934033  0.33184528    -0.81100
H665        H  0.89545721  0.32649000  0.20922287     0.33700
H666        H  0.86806310  0.32262831  0.21801892     0.38200
H667        H  0.95319209  0.19932220  0.32817434     0.33600
H668        H  0.97354085  0.23886551  0.33796988     0.30300
H669        H  0.99279575  0.36063197  0.31370361     0.33600
H670        H  0.98495230  0.31330577  0.30672660     0.30300
H671        H  0.96062154  0.31557177  0.43022775     0.38200
H672        H  0.92725427  0.31031122  0.40397810     0.33700
C673        C  0.90007111  0.46404286  0.43948021    -0.20100
C674        C  0.88570095  0.43037990  0.42264022     0.36100
C675        C  0.85650351  0.42991424  0.40808223    -0.26100
C676        C  0.84129236  0.46261216  0.40909058     0.02600
C677        C  0.85558692  0.49623215  0.42573997     0.27400
C678        C  0.88470531  0.49645341  0.44089783    -0.25200
N679        N  0.90065113  0.89218512  0.42766227    -0.82600
H680        H  0.84550259  0.40397426  0.39563084     0.13200
C681        C  0.81042698  0.46138816  0.39291431     0.02500
N682        N  0.84046635  0.53020956  0.42694101    -0.81100
H683        H  0.89546053  0.52230090  0.45382757     0.18000
C684        C  0.79599194  0.47062211  0.41113850    -0.26000
C685        C  0.76697900  0.47226658  0.39660123     0.36100
C686        C  0.75178469  0.46373854  0.36320483    -0.20000
C687        C  0.76613175  0.45349948  0.34504865    -0.25300
C688        C  0.79531393  0.45220579  0.35953726     0.27400
H689        H  0.80738370  0.97630531  0.43484107     0.13200
N690        N  0.75291608  0.98229722  0.41455031    -0.82500
H691        H  0.75450272  0.44656952  0.31945630     0.18000
N692        N  0.80959857  0.44205877  0.34042378    -0.81100
H693        H  0.75998394  0.01027517  0.42307356     0.33700
H694        H  0.75885246  0.96380978  0.43469664     0.38200
H695        H  0.79544836  0.43552294  0.31651382     0.33600
H696        H  0.82068459  0.46654225  0.33922548     0.30300
H697        H  0.85402772  0.55221344  0.44056457     0.33600
H698        H  0.82978339  0.54081953  0.40316800     0.30300
H699        H  0.91088204  0.89623982  0.41301104     0.38200
H700        H  0.88732783  0.86850763  0.41790579     0.33700
C701        C  0.59935070  0.13757694  0.13654747    -0.20100
C702        C  0.61775509  0.10718752  0.13797493     0.36100
C703        C  0.62953749  0.08354524  0.16586539    -0.26100
C704        C  0.62401614  0.08991236  0.19265609     0.02600
C705        C  0.60621535  0.12035804  0.19174114     0.27400
C706        C  0.59407569  0.14379709  0.16379162    -0.25200
N707        N  0.62459570  0.10024309  0.11137108    -0.82600
H708        H  0.64351782  0.06025443  0.16698921     0.13200
C709        C  0.63715717  0.06439816  0.22158139     0.02500
N710        N  0.60029481  0.12700489  0.21907945    -0.81100
H711        H  0.58018662  0.16685965  0.16333408     0.18000
C712        C  0.65534665  0.08059461  0.25156731    -0.26000
C713        C  0.66842351  0.05710161  0.27927377     0.36100
C714        C  0.66353361  0.01677324  0.27693421    -0.20000
C715        C  0.64498097  0.00061121  0.24713809    -0.25300
C716        C  0.63169182  0.02409197  0.21934525     0.27400
H717        H  0.65944887  0.11158399  0.25342620     0.13200
N718        N  0.68622586  0.07429137  0.30992461    -0.82500
H719        H  0.64108155  0.96957788  0.24556057     0.18000
N720        N  0.61262966  0.00732004  0.18889743    -0.81100
H721        H  0.67470203  0.09489915  0.31554020     0.33700
H722        H  0.67101627  0.59278008  0.31084070     0.38200
H723        H  0.61092634  0.97731969  0.19137599     0.33600
H724        H  0.59303559  0.01912424  0.18288818     0.30300
H725        H  0.58685884  0.15064808  0.21461466     0.33600
H726        H  0.58978944  0.10258426  0.22161145     0.30300
H727        H  0.63700230  0.07546506  0.11568506     0.38200
H728        H  0.63670595  0.12363986  0.11047774     0.33700
C729        C  0.09118503  0.36716854  0.12868541    -0.20100
C730        C  0.11763537  0.35038673  0.13766363     0.36100
C731        C  0.12881021  0.32528057  0.16464145    -0.26100
C732        C  0.11419906  0.31633559  0.18276004     0.02600
C733        C  0.08748537  0.33203653  0.17325330     0.27400
C734        C  0.07634903  0.35743899  0.14647932    -0.25200
N735        N  0.13344463  0.35962451  0.12005830    -0.82600
H736        H  0.14947725  0.31358212  0.17225668     0.13200
C737        C  0.12792679  0.29247063  0.21276375     0.02500
N738        N  0.07184556  0.32221028  0.19092432    -0.81100
H739        H  0.05587832  0.36959205  0.13940039     0.18000
C740        C  0.13055835  0.30769944  0.24245810    -0.26000
C741        C  0.14484603  0.28723697  0.27173497     0.36100
C742        C  0.15700330  0.25115240  0.27126397    -0.20000
C743        C  0.15425746  0.23563441  0.24172220    -0.25300
C744        C  0.13955047  0.25577054  0.21231331     0.27400
H745        H  0.12196970  0.33607629  0.24287259     0.13200
N746        N  0.14740558  0.30309445  0.30199171    -0.82500
H747        H  0.16364679  0.20776029  0.24169509     0.18000
N748        N  0.13641577  0.23922172  0.18205157    -0.81100
H749        H  0.13716966  0.32982953  0.29808720     0.33700
H750        H  0.16843173  0.30867100  0.31661121     0.38200
H751        H  0.14610847  0.21206520  0.18598494     0.33600
H752        H  0.11524676  0.23438029  0.16769245     0.30300
H753        H  0.05263261  0.33633043  0.18092048     0.33600
H754        H  0.06772439  0.29238021  0.18808268     0.30300
H755        H  0.13878676  0.38905664  0.12392106     0.38200
H756        H  0.15208182  0.34407318  0.12933907     0.33700
C757        C  0.09438577  0.06232175  0.44285751    -0.20100
C758        C  0.09594375  0.04770972  0.41473168     0.36100
C759        C  0.10954770  0.06958922  0.40002746    -0.26100
C760        C  0.12232443  0.10519318  0.41309919     0.02600
C761        C  0.12128642  0.11950526  0.44139309     0.27400
C762        C  0.10716857  0.09819267  0.45573896    -0.25200
N763        N  0.08404037  0.01063634  0.40127205    -0.82600
H764        H  0.11030620  0.05872633  0.37821598     0.13200
C765        C  0.13663979  0.12718027  0.39680949     0.02500
N766        N  0.13482911  0.15547059  0.45564745    -0.81100
H767        H  0.10620816  0.10982572  0.47720327     0.18000
C768        C  0.12858442  0.16559295  0.38653400    -0.26000
C769        C  0.14135668  0.18701033  0.37071217     0.36100
C770        C  0.16242721  0.16975954  0.36463530    -0.20000
C771        C  0.17063914  0.13145027  0.37510972    -0.25300
C772        C  0.15807823  0.11004413  0.39126653     0.27400
H773        H  0.11217683  0.17901398  0.39069982     0.13200
N774        N  0.13323359  0.22652100  0.36141450    -0.82500
H775        H  0.18683712  0.11811355  0.37049309     0.18000
N776        N  0.16715882  0.07111146  0.40231821    -0.81100
H777        H  0.13632168  0.24212492  0.38232491     0.33700
H778        H  0.11201388  0.22684626  0.34570324     0.38200
H779        H  0.18303788  0.06281013  0.39627826     0.33600
H780        H  0.17569384  0.07116338  0.42774863     0.30300
H781        H  0.13201708  0.16208467  0.47629288     0.33600
H782        H  0.15613882  0.15149668  0.46359114     0.30300
H783        H  0.09532268  0.98930477  0.41828010     0.38200
H784        H  0.08645971  0.00476003  0.38024948     0.33700
C785        C  0.39664257  0.23248960  0.43993115    -0.20100
C786        C  0.37976645  0.26522551  0.43746059     0.36100
C787        C  0.35079603  0.26175012  0.42083556    -0.26100
C788        C  0.33820627  0.22614951  0.40765437     0.02600
C789        C  0.35483894  0.19327043  0.41079120     0.27400
C790        C  0.38383598  0.19682603  0.42666306    -0.25200
N791        N  0.39191982  0.30170184  0.45221313    -0.82600
H792        H  0.33786455  0.28687365  0.41846114     0.13200
C793        C  0.30752388  0.22344124  0.39152474     0.02500
N794        N  0.34218416  0.15633363  0.39805453    -0.81100
H795        H  0.39645793  0.17153164  0.42851132     0.18000
C796        C  0.29391601  0.21041430  0.35922347    -0.26000
C797        C  0.26497827  0.20627441  0.34370324     0.36100
C798        C  0.24925339  0.21603849  0.36047859    -0.20000
C799        C  0.26287573  0.22932734  0.39270325    -0.25300
C800        C  0.29187077  0.23289591  0.40849357     0.27400
H801        H  0.30586058  0.20301526  0.34611818     0.13200
N802        N  0.25173362  0.19093235  0.31133971    -0.82500
H803        H  0.25079844  0.23693039  0.40559324     0.18000
N804        N  0.30552554  0.24558822  0.44180238    -0.81100
H805        H  0.26002303  0.16337441  0.31157164     0.33700
H806        H  0.25672658  0.20888373  0.29619755     0.38200
H807        H  0.29103703  0.25120052  0.45077376     0.33600
H808        H  0.31788379  0.22262762  0.45566538     0.30300
H809        H  0.35730654  0.13516749  0.40199950     0.33600
H810        H  0.33137841  0.14758331  0.41118593     0.30300
H811        H  0.40151080  0.29746547  0.47743728     0.38200
H812        H  0.37661023  0.32279877  0.44752983     0.33700
C813        C  0.66378846  0.45966769  0.77289023    -0.20100
C814        C  0.63935503  0.43932796  0.76815998     0.36100
C815        C  0.62505450  0.41782254  0.73951230    -0.26100
C816        C  0.63537318  0.41418194  0.71631739     0.02600
C817        C  0.66011989  0.43353670  0.72134671     0.27400
C818        C  0.67365393  0.45675976  0.74912781    -0.25200
N819        N  0.62952919  0.43954870  0.79276084    -0.82600
H820        H  0.60592685  0.40319242  0.73548451     0.13200
C821        C  0.61995186  0.39006653  0.68689185     0.02500
N822        N  0.67164594  0.42903544  0.69850685    -0.81100
H823        H  0.69223849  0.47236224  0.75240048     0.18000
C824        C  0.61237504  0.40636516  0.65597811    -0.26000
C825        C  0.59760837  0.38470672  0.62753958     0.36100
C826        C  0.58993986  0.34599218  0.63009867    -0.20000
C827        C  0.59703284  0.32997071  0.66100549    -0.25300
C828        C  0.61233816  0.35133547  0.68943212     0.27400
H829        H  0.61774689  0.43632795  0.65404022     0.13200
N830        N  0.58995657  0.40215130  0.59615964    -0.82500
H831        H  0.59138472  0.30016171  0.66302587     0.18000
N832        N  0.62063864  0.33360892  0.72085206    -0.81100
H833        H  0.59772472  0.43046780  0.59861423     0.33700
H834        H  0.56832854  0.40447193  0.58469809     0.38200
H835        H  0.61321005  0.30509986  0.71844414     0.33600
H836        H  0.64229502  0.33182603  0.73202436     0.30300
H837        H  0.68990281  0.44521142  0.70576939     0.33600
H838        H  0.67719824  0.39982725  0.69894653     0.30300
H839        H  0.64447447  0.42566233  0.81337249     0.38200
H840        H  0.61129227  0.42328935  0.78535521     0.33700
C841        C  0.40653468  0.00971168  0.24616749    -0.20100
C842        C  0.42337217  0.04147042  0.24695881     0.36100
C843        C  0.43770458  0.06219254  0.27601878    -0.26100
C844        C  0.43609164  0.05114725  0.30474379     0.02600
C845        C  0.42012243  0.01818848  0.30426553     0.27400
C846        C  0.40514977  0.99817643  0.27483109    -0.25200
N847        N  0.42539782  0.05327656  0.21802343    -0.82600
H848        H  0.44965536  0.08756743  0.27592663     0.13200
C849        C  0.44970596  0.07573029  0.33446366     0.02500
N850        N  0.41925853  0.00517112  0.33369637    -0.81100
H851        H  0.39261725  0.97320155  0.27427306     0.18000
C852        C  0.43365627  0.09008769  0.34939079    -0.26000
C853        C  0.44502512  0.11514001  0.37634626     0.36100
C854        C  0.47316062  0.12632738  0.38869091    -0.20000
C855        C  0.48925491  0.11197035  0.37379019    -0.25300
C856        C  0.47794051  0.08645532  0.34708259     0.27400
H857        H  0.41186334  0.08253477  0.33936386     0.13200
N858        N  0.42782779  0.13023020  0.39049012    -0.82500
H859        H  0.51087863  0.12033154  0.38331007     0.18000
N860        N  0.49504656  0.07118708  0.33290502    -0.81100
H861        H  0.40771942  0.11897438  0.37868120     0.33700
H862        H  0.42612921  0.16027066  0.38648858     0.38200
H863        H  0.51518726  0.08233139  0.34471840     0.33600
H864        H  0.49659546  0.04114905  0.33690272     0.30300
H865        H  0.40661952  0.98060648  0.32922548     0.33600
H866        H  0.43932313  0.99652910  0.34985783     0.30300
H867        H  0.41634933  0.59426228  0.21453898     0.38200
H868        H  0.44628204  0.05215920  0.22272158     0.33700
C869        C  0.39784265  0.04789906  0.65494095    -0.20100
C870        C  0.38970941  0.08656080  0.64450365     0.36100
C871        C  0.40318846  0.10716991  0.62903459    -0.26100
C872        C  0.42492732  0.09018361  0.62451534     0.02600
C873        C  0.43360444  0.05210476  0.63568981     0.27400
C874        C  0.41999808  0.03131342  0.65086732    -0.25200
N875        N  0.36808385  0.10484640  0.65002744    -0.82600
H876        H  0.39694674  0.13669657  0.62071702     0.13200
C877        C  0.43873741  0.11265785  0.60827718     0.02500
N878        N  0.45597542  0.03464587  0.63116622    -0.81100
H879        H  0.42623628  0.00168536  0.65881721     0.18000
C880        C  0.46552204  0.12685376  0.62695466    -0.26000
C881        C  0.47962612  0.14793174  0.61251722     0.36100
C882        C  0.46682411  0.15392138  0.57832774    -0.20000
C883        C  0.43994599  0.13929284  0.55971585    -0.25300
C884        C  0.42564482  0.11912565  0.57443997     0.27400
H885        H  0.47533345  0.12172759  0.65301016     0.13200
N886        N  0.50709596  0.16228765  0.63245114    -0.82500
H887        H  0.42992423  0.14401205  0.53361999     0.18000
N888        N  0.39791518  0.10515731  0.55525660    -0.81100
H889        H  0.51462457  0.15115110  0.65610057     0.33700
H890        H  0.50549321  0.19233044  0.63461558     0.38200
H891        H  0.39115507  0.11256898  0.53075856     0.33600
H892        H  0.39846827  0.07478312  0.55648076     0.30300
H893        H  0.45999998  0.00658723  0.64102513     0.33600
H894        H  0.44946754  0.03168031  0.60611867     0.30300
H895        H  0.37496469  0.10685384  0.67520492     0.38200
H896        H  0.36472140  0.13329912  0.64099625     0.33700
C897        C  0.58960597  0.33009504  0.43803668    -0.20100
C898        C  0.57891670  0.33131653  0.40365226     0.36100
C899        C  0.59369356  0.35123277  0.38943684    -0.26100
C900        C  0.61833715  0.37089790  0.40863106     0.02600
C901        C  0.62859767  0.37105982  0.44270641     0.27400
C902        C  0.61416030  0.35068114  0.45709419    -0.25200
N903        N  0.55296985  0.31295276  0.38320067    -0.82600
H904        H  0.58580534  0.35190901  0.36317541     0.13200
C905        C  0.63312403  0.39138842  0.39256026     0.02500
N906        N  0.65377109  0.39159613  0.46249430    -0.81100
H907        H  0.62249137  0.35035420  0.48339778     0.18000
C908        C  0.63288960  0.43213275  0.39171288    -0.26000
C909        C  0.64629849  0.45257204  0.37606506     0.36100
C910        C  0.66062450  0.43157346  0.36171379    -0.20000
C911        C  0.66098306  0.39083155  0.36282067    -0.25300
C912        C  0.64710919  0.37045373  0.37785506     0.27400
H913        H  0.62200354  0.44790521  0.40306333     0.13200
N914        N  0.64615357  0.49438342  0.37559616    -0.82500
H915        H  0.67212222  0.37495142  0.35183836     0.18000
N916        N  0.64714098  0.32865425  0.37831524    -0.81100
H917        H  0.63577133  0.50517883  0.38858203     0.33700
H918        H  0.63459302  0.50332957  0.35150514     0.38200
H919        H  0.65803763  0.31771741  0.36597861     0.33600
H920        H  0.65792811  0.31974981  0.40256284     0.30300
H921        H  0.65836859  0.38924141  0.48715064     0.33600
H922        H  0.66995911  0.37796700  0.45964550     0.30300
H923        H  0.53737405  0.32773332  0.38648223     0.38200
H924        H  0.54842598  0.31612044  0.35862460     0.33700
C925        C  0.80855588  0.23983820  0.64827002    -0.20100
C926        C  0.79199973  0.23578766  0.61439271     0.36100
C927        C  0.76309466  0.24027031  0.60161789    -0.26100
C928        C  0.75041711  0.24786006  0.62205941     0.02600
C929        C  0.76690847  0.25154564  0.65589038     0.27400
C930        C  0.79580860  0.24759553  0.66863042    -0.25200
N931        N  0.80450958  0.22621068  0.59325240    -0.82600
H932        H  0.75027713  0.23678807  0.57571183     0.13200
C933        C  0.71972390  0.24978526  0.60794450     0.02500
N934        N  0.75418768  0.25934327  0.67711886    -0.81100
H935        H  0.80850951  0.25097470  0.69457182     0.18000
C936        C  0.70574305  0.22284207  0.61837280    -0.26000
C937        C  0.67668912  0.22263524  0.60514002     0.36100
C938        C  0.66113575  0.24948167  0.58028622    -0.20000
C939        C  0.67523399  0.27734933  0.57059869    -0.25300
C940        C  0.70442116  0.27765003  0.58411923     0.27400
H941        H  0.71762261  0.20162118  0.63681009     0.13200
N942        N  0.66295537  0.19538870  0.61704136    -0.82500
H943        H  0.66344824  0.29817489  0.55174698     0.18000
N944        N  0.71859658  0.30576648  0.57355458    -0.81100
H945        H  0.67736714  0.17751055  0.63506877     0.33700
H946        H  0.65297147  0.21137987  0.62820627     0.38200
H947        H  0.70436278  0.32415046  0.55584016     0.33600
H948        H  0.73051724  0.32323453  0.59354536     0.30300
H949        H  0.76918433  0.26094030  0.70133920     0.33600
H950        H  0.74490643  0.28677033  0.67102412     0.30300
H951        H  0.81337512  0.19858884  0.59987215     0.38200
H952        H  0.78944989  0.22424225  0.56908617     0.33700
C953        C  0.89725838  0.18700801  0.73522229    -0.20100
C954        C  0.91898934  0.16126337  0.73901950     0.36100
C955        C  0.93275417  0.14067680  0.76835075    -0.26100
C956        C  0.92459019  0.14398399  0.79346385     0.02600
C957        C  0.90259209  0.16912103  0.78952159     0.27400
C958        C  0.88940816  0.19072201  0.76062793    -0.25200
N959        N  0.92661949  0.15544566  0.71290049    -0.82600
H960        H  0.94975767  0.12147838  0.77152967     0.13200
C961        C  0.93911217  0.12047173  0.82351991     0.02500
N962        N  0.89353512  0.17225368  0.81469501    -0.81100
H963        H  0.87286851  0.21058516  0.75790072     0.18000
C964        C  0.95141572  0.13910417  0.85388020    -0.26000
C965        C  0.96592007  0.11780356  0.88272334     0.36100
C966        C  0.96838585  0.07711338  0.88101883    -0.20000
C967        C  0.95617620  0.05853562  0.85066333    -0.25300
C968        C  0.94119260  0.07970007  0.82193950     0.27400
H969        H  0.95005778  0.17045815  0.85498550     0.13200
N970        N  0.97867875  0.13740447  0.91356799    -0.82500
H971        H  0.95793900  0.02724746  0.84945303     0.18000
N972        N  0.92786029  0.05996784  0.79119081    -0.81100
H973        H  0.97472377  0.16727363  0.91057573     0.33700
H974        H  0.00015475  0.13403378  0.92263982     0.38200
H975        H  0.93147857  0.03002729  0.79422716     0.33600
H976        H  0.90646194  0.06388985  0.78246269     0.30300
H977        H  0.87718345  0.19208685  0.80801094     0.33600
H978        H  0.88565440  0.14516260  0.81690306     0.30300
H979        H  0.90965250  0.14280902  0.69354356     0.38200
H980        H  0.94301692  0.13566765  0.71972686     0.33700
C981        C  0.89902710  0.27564419  0.64882086    -0.20100
C982        C  0.89090055  0.27482959  0.61494530     0.36100
C983        C  0.90565771  0.29703039  0.60205183    -0.26100
C984        C  0.92892826  0.31892420  0.62232811     0.02600
C985        C  0.93738856  0.31917081  0.65623370     0.27400
C986        C  0.92222078  0.29772582  0.66908542    -0.25200
N987        N  0.86793445  0.25114602  0.59383067    -0.82600
H988        H  0.89905046  0.29716507  0.57599152     0.13200
C989        C  0.94405389  0.34144474  0.60748325     0.02500
N990        N  0.96136055  0.34107445  0.67745415    -0.81100
H991        H  0.92838287  0.29851509  0.69504067     0.18000
C992        C  0.94802440  0.38156113  0.61328406    -0.26000
C993        C  0.96132160  0.40406752  0.59863858     0.36100
C994        C  0.97051206  0.38603299  0.57741709    -0.20000
C995        C  0.96649406  0.34590103  0.57165143    -0.25300
C996        C  0.95372996  0.32333194  0.58679292     0.27400
H997        H  0.94024159  0.39548220  0.62883936     0.13200
N998        N  0.96495026  0.44517904  0.60469901    -0.82500
H999        H  0.97386472  0.33190551  0.55572943     0.18000
N1000       N  0.95077116  0.28202860  0.58149482    -0.81100
H1001       H  0.95734020  0.45367011  0.62118014     0.33700
H1002       H  0.95289717  0.45949620  0.58277483     0.38200
H1003       H  0.95887972  0.27331335  0.56553831     0.33600
H1004       H  0.96271112  0.26839012  0.60378825     0.30300
H1005       H  0.96461634  0.33842577  0.70165285     0.33600
H1006       H  0.97865517  0.32879381  0.67616294     0.30300
H1007       H  0.87329792  0.22210060  0.60035317     0.38200
H1008       H  0.86462453  0.25401163  0.56962477     0.33700
C1009       C  0.88363063  0.75728132  0.66833585     0.02900
C1010       C  0.89707590  0.73410280  0.69622830    -0.13200
C1011       C  0.88175674  0.71330167  0.70925170     0.00400
C1012       C  0.85272728  0.71635904  0.69431296    -0.11800
C1013       C  0.83906262  0.73976664  0.66666034     0.02900
C1014       C  0.85461913  0.76048913  0.65402120    -0.11200
H1015       H  0.91951341  0.73224837  0.70778927     0.08500
H1016       H  0.84067264  0.70006541  0.70393108     0.06000
H1017       H  0.84411700  0.77952228  0.63325982     0.05900
Zr1018     Zr  0.49070396  0.68497682  0.49389333     2.17500
O1019       O  0.48159326  0.61531606  0.49244094    -0.51500
O1020       O  0.44215466  0.70289428  0.46845147    -0.74700
O1021       O  0.47753673  0.66526968  0.53627394    -0.81500
O1022       O  0.50111231  0.67988979  0.41645811    -0.83300
O1023       O  0.50052947  0.70222870  0.58127010    -0.78900
O1024       O  0.47725832  0.65238952  0.44179651    -0.90500
O1025       O  0.43958322  0.76862696  0.46523918    -0.76500
O1026       O  0.48931478  0.74275777  0.52174160    -0.86000
O1027       O  0.48714142  0.73743881  0.45826057    -0.85700
O1028       O  0.53285702  0.68471253  0.54374571    -0.72400
O1029       O  0.53120574  0.68040155  0.48459525    -0.84600
Zr1030     Zr  0.56871165  0.79306861  0.52642930     2.26400
Zr1031     Zr  0.53188446  0.74415954  0.57064004     2.06300
Zr1032     Zr  0.52782365  0.73402776  0.44966348     2.10000
Zr1033     Zr  0.48617559  0.79502593  0.48630788     1.78800
O1034       O  0.55244257  0.69958026  0.42387119    -0.93400
O1035       O  0.46598221  0.82896156  0.51746331    -0.41200
O1036       O  0.52658626  0.79291764  0.47672275    -0.77800
O1037       O  0.52830341  0.79810851  0.53588641    -0.96500
O1038       O  0.57229640  0.74048773  0.56181898    -0.89800
O1039       O  0.57010023  0.73505461  0.49869503    -0.92600
C1040       C  0.42841091  0.73481519  0.46073020     1.01100
C1041       C  0.48384859  0.65501662  0.41801190     1.14000
C1042       C  0.48332505  0.67527590  0.56561566     1.04800
O1043       O  0.50925705  0.78489489  0.59530987    -0.94800
O1044       O  0.56526681  0.79067256  0.60699358    -0.90500
O1045       O  0.58626587  0.82233756  0.58015112    -0.83700
C1046       C  0.58231720  0.81595946  0.60547318     1.11500
O1047       O  0.56774222  0.61217794  0.53081202    -0.96800
Zr1048     Zr  0.57321087  0.68268593  0.53414853     1.88900
O1049       O  0.61725753  0.77503822  0.55251245    -0.73400
O1050       O  0.55996730  0.70939484  0.62104925    -0.52700
O1051       O  0.59280271  0.65573797  0.58904729    -0.97400
O1052       O  0.59825259  0.65116555  0.50730355    -0.54600
O1053       O  0.61965590  0.70953056  0.55995593    -0.73900
C1054       C  0.63076851  0.74328244  0.56327559     0.98400
O1055       O  0.57285488  0.86365343  0.52466326    -0.62000
O1056       O  0.49673862  0.76653154  0.39930548    -0.57600
O1057       O  0.58285308  0.81399567  0.48548428    -0.94200
O1058       O  0.55722740  0.78029860  0.43918011    -0.92700
O1059       O  0.46194249  0.82025346  0.43106982    -0.93000
O1060       O  0.48963035  0.86526242  0.48204447    -0.91800
C1061       C  0.57544984  0.80600278  0.45541167     1.17200
H1062       H  0.47065304  0.73517790  0.43783299     0.33200
H1063       H  0.52876469  0.82225530  0.54686979     0.44000
H1064       H  0.58589141  0.73496367  0.49385687     0.37600
H1065       H  0.53312018  0.66260515  0.55690402     0.34000
H1066       H  0.44910188  0.84161157  0.50085529     0.25800
H1067       H  0.55374578  0.71955207  0.63699382     0.31800
H1068       H  0.61143927  0.64625709  0.59303658     0.37700
H1069       H  0.44424576  0.83066591  0.42963610     0.32100
H1070       H  0.50499465  0.76168027  0.38409977     0.31000
H1071       H  0.54584771  0.71164628  0.40204481     0.32700
H1072       H  0.61100211  0.67118061  0.50601695     0.31700
H1073       H  0.50773454  0.87225004  0.50015149     0.35700
H1074       H  0.56184230  0.87096442  0.50152577     0.28400
H1075       H  0.46230492  0.61306485  0.48977326     0.32600
H1076       H  0.58654089  0.60138373  0.54378319     0.35500
H1077       H  0.47951059  0.75086068  0.39050503     0.28100
H1078       H  0.56182633  0.87397073  0.53546652     0.41000
H1079       H  0.50787350  0.81088169  0.58534749     0.31000
H1080       H  0.45885790  0.80806404  0.52668502     0.38600
H1081       H  0.58417872  0.64766675  0.48448582     0.30500
H1082       H  0.55326938  0.68220603  0.61717147     0.30500
H1083       H  0.49336448  0.60563610  0.51471979     0.30800
C1084       C  0.17630142  0.68771178  0.34314188     0.02900
C1085       C  0.16141259  0.70683112  0.31325371    -0.13200
C1086       C  0.17540260  0.72848610  0.29907960     0.00400
C1087       C  0.20440930  0.73089440  0.31467421    -0.11800
C1088       C  0.21958038  0.71181655  0.34447462     0.02900
C1089       C  0.20538520  0.69029310  0.35852949    -0.11200
H1090       H  0.13898519  0.70483945  0.30094255     0.08500
H1091       H  0.21508253  0.74837688  0.30395995     0.06000
H1092       H  0.21701180  0.67576868  0.38166304     0.05900
C1093       C  0.67567499  0.94717076  0.34598712     0.02900
C1094       C  0.66227604  0.97101448  0.31858443    -0.13200
C1095       C  0.67770131  0.99111474  0.30540884     0.00400
C1096       C  0.70665122  0.98684595  0.31948069    -0.11800
C1097       C  0.72026759  0.96268890  0.34672055     0.02900
C1098       C  0.70457691  0.94261143  0.35965973    -0.11200
H1099       H  0.63990949  0.97421436  0.30769508     0.08500
H1100       H  0.71895493  0.50130822  0.30680412     0.06000
H1101       H  0.71488785  0.92390500  0.38070158     0.05900
Zr1102     Zr  0.99346086  0.92040929  0.49603074     2.17500
O1103       O  0.98932964  0.84987967  0.49754593    -0.51500
O1104       O  0.94418062  0.93526705  0.46767159    -0.74700
O1105       O  0.97967243  0.90013881  0.53763747    -0.81500
O1106       O  0.00248414  0.91726850  0.41872474    -0.83300
O1107       O  0.00012158  0.93964102  0.58175646    -0.78900
O1108       O  0.97998972  0.88739529  0.44442705    -0.90500
O1109       O  0.94173164  0.50064190  0.45911604    -0.76500
O1110       O  0.98890177  0.97905409  0.52074218    -0.86000
O1111       O  0.99037875  0.97128157  0.45924222    -0.85700
O1112       O  0.03421392  0.92429612  0.54723488    -0.72400
O1113       O  0.03553253  0.91642355  0.48982098    -0.84600
Zr1114     Zr  0.07063581  0.52698373  0.52378284     2.26400
Zr1115     Zr  0.03002094  0.98448808  0.57101056     2.06300
Zr1116     Zr  0.03233752  0.96840531  0.45350240     2.10000
Zr1117     Zr  0.98826532  0.52740787  0.48061459     1.78800
O1118       O  0.06037113  0.92789788  0.43588911    -0.93400
O1119       O  0.96732653  0.56249336  0.51040887    -0.41200
O1120       O  0.02963274  0.52485920  0.47298691    -0.77800
O1121       O  0.02919972  0.53214424  0.53107619    -0.96500
O1122       O  0.07193144  0.98193061  0.56515991    -0.89800
O1123       O  0.07302550  0.97341309  0.50392450    -0.92600
C1124       C  0.92982051  0.96602553  0.45523568     1.01100
C1125       C  0.98553375  0.89156279  0.42001441     1.14000
C1126       C  0.98437391  0.91112306  0.56641118     1.04800
O1127       O  0.00493324  0.52045724  0.58566126    -0.94800
O1128       O  0.06162291  0.53022261  0.60188610    -0.90500
O1129       O  0.08584439  0.55731921  0.57684399    -0.83700
C1130       C  0.07959452  0.55422166  0.60083049     1.11500
O1131       O  0.07142631  0.85270262  0.54459631    -0.96800
Zr1132     Zr  0.07609248  0.92290344  0.54082155     1.88900
O1133       O  0.11939895  0.51112738  0.55072160    -0.73400
O1134       O  0.05957882  0.95338470  0.62268598    -0.52700
O1135       O  0.09859005  0.90087625  0.59725343    -0.97400
O1136       O  0.10092236  0.88891740  0.51492872    -0.54600
O1137       O  0.12193090  0.95224645  0.56472751    -0.73900
C1138       C  0.13184663  0.98676213  0.56750518     0.98400
O1139       O  0.07451429  0.59744901  0.52082448    -0.62800
O1140       O  0.00250550  0.49635534  0.39687653    -0.57600
O1141       O  0.08609633  0.54562353  0.48321895    -0.94200
O1142       O  0.06319512  0.50884626  0.43801211    -0.92700
O1143       O  0.96627316  0.55303952  0.42530595    -0.93000
O1144       O  0.99191940  0.59760593  0.47663068    -0.91800
C1145       C  0.08070054  0.53539167  0.45402512     1.17200
H1146       H  0.97473113  0.96784021  0.43832437     0.33200
H1147       H  0.02891320  0.55668122  0.54118382     0.44000
H1148       H  0.08943746  0.97372719  0.50023644     0.37600
H1149       H  0.03459975  0.90269679  0.56098472     0.34000
H1150       H  0.94891309  0.57075750  0.49356235     0.25800
H1151       H  0.05072351  0.95946630  0.63707894     0.31800
H1152       H  0.11687542  0.89080054  0.60038318     0.37700
H1153       H  0.95387036  0.53202585  0.41200353     0.32100
H1154       H  0.00952111  0.02534452  0.40296250     0.31000
H1155       H  0.05015727  0.92748243  0.41182176     0.32700
H1156       H  0.11014590  0.90952408  0.50809061     0.31700
H1157       H  0.01161115  0.60355444  0.49098729     0.35700
H1158       H  0.06329553  0.60408353  0.49757614     0.28400
H1159       H  0.97029228  0.84495596  0.49499605     0.32600
H1160       H  0.09058078  0.84229450  0.55471207     0.35500
H1161       H  0.01129386  0.49082276  0.38230874     0.28100
H1162       H  0.06370584  0.60827094  0.53172961     0.41000
H1163       H  0.01001902  0.51142157  0.60814980     0.31000
H1164       H  0.96315311  0.54223636  0.52302895     0.38600
H1165       H  0.08617547  0.87885215  0.49429225     0.30500
H1166       H  0.05657482  0.92511623  0.61854819     0.30500
H1167       H  0.00170365  0.84216482  0.52023089     0.30800
C1168       C  0.38519073  0.52037985  0.67065458     0.02900
C1169       C  0.39780691  0.00299258  0.69825615    -0.13200
C1170       C  0.38376344  0.98017266  0.71180465     0.00400
C1171       C  0.35468722  0.97838687  0.69598953    -0.11800
C1172       C  0.33978685  0.99905273  0.66710308     0.02900
C1173       C  0.35611450  0.51915649  0.65461601    -0.11200
H1174       H  0.42024271  0.00487877  0.71051642     0.08500
H1175       H  0.34356278  0.96052584  0.70588587     0.06000
H1176       H  0.34497207  0.53528090  0.63219226     0.05900
C1177       C  0.88827524  0.68854386  0.17358317     0.02900
C1178       C  0.90224734  0.70908963  0.20289315    -0.13200
C1179       C  0.88725351  0.73043242  0.21598342     0.00400
C1180       C  0.85815165  0.73039763  0.19996826    -0.11800
C1181       C  0.84403553  0.70969544  0.17087354     0.02900
C1182       C  0.85918661  0.68897715  0.15778312    -0.11200
H1183       H  0.92472011  0.70892128  0.21525897     0.08500
H1184       H  0.84650042  0.74691224  0.20993628     0.06000
H1185       H  0.84828555  0.67343158  0.13504887     0.05900
Zr1186     Zr  0.57293218  0.68181934  0.02482186     2.17500
O1187       O  0.57803063  0.61132792  0.02637139    -0.51500
O1188       O  0.62139740  0.70015904  0.04848022    -0.74700
O1189       O  0.58850183  0.66125093  0.98476651    -0.81500
O1190       O  0.56593492  0.68339788  0.10398995    -0.83300
O1191       O  0.56446351  0.69576529  0.93834744    -0.78900
O1192       O  0.58829720  0.65279161  0.07843533    -0.90500
O1193       O  0.62416104  0.76586812  0.05087171    -0.76500
O1194       O  0.57392822  0.73828063  0.99523558    -0.86000
O1195       O  0.57668970  0.73578505  0.05907920    -0.85700
O1196       O  0.53059649  0.67958833  0.97534372    -0.72400
O1197       O  0.53277640  0.67824343  0.03491644    -0.84600
Zr1198     Zr  0.49483619  0.78952948  0.98994116     2.26400
Zr1199     Zr  0.53144067  0.73732014  0.94653211     2.06300
Zr1200     Zr  0.53631807  0.73336090  0.06818610     2.10000
Zr1201     Zr  0.57734678  0.79203262  0.02924324     1.78800
O1202       O  0.51244010  0.69835638  0.09477976    -0.93400
O1203       O  0.59982355  0.82478534  0.99996409    -0.41200
O1204       O  0.53721907  0.79127775  0.03957280    -0.77800
O1205       O  0.53512263  0.79263139  0.97985300    -0.96500
O1206       O  0.49116273  0.73538118  0.95596723    -0.89800
O1207       O  0.49385131  0.73292305  0.01948114    -0.92600
C1208       C  0.63529202  0.73200161  0.05556962     1.01100
C1209       C  0.58303507  0.65799263  0.10296944     1.14000
C1210       C  0.58301380  0.67077494  0.95537911     1.04800
O1211       O  0.55345337  0.77301634  0.91816825    -0.94800
O1212       O  0.50018761  0.78553692  0.90970095    -0.90500
O1213       O  0.47825133  0.81702355  0.93548359    -0.83700
C1214       C  0.48312600  0.81103580  0.91074769     1.11500
O1215       O  0.49699278  0.60866754  0.98699161    -0.96800
Zr1216     Zr  0.49044568  0.67895511  0.98564148     1.88900
O1217       O  0.44619573  0.77069111  0.96558139    -0.73400
O1218       O  0.50214318  0.69898383  0.89898948    -0.52700
O1219       O  0.46612963  0.65301007  0.93066178    -0.97400
O1220       O  0.46977887  0.64651348  0.01714587    -0.54600
O1221       O  0.44361325  0.70469732  0.96453236    -0.73900
C1222       C  0.43250454  0.73861664  0.95901910     0.98400
O1223       O  0.48982903  0.86019745  0.98718261    -0.62800
O1224       O  0.56628777  0.76775696  0.11779942    -0.57600
O1225       O  0.48168733  0.81263381  0.03158422    -0.94200
O1226       O  0.50626632  0.77835324  0.07796781    -0.92700
O1227       O  0.60133948  0.82106273  0.08304951    -0.93000
O1228       O  0.57017304  0.86213552  0.02467210    -0.91800
C1229       C  0.48845228  0.80435062  0.06159618     1.17200
H1230       H  0.59321303  0.73430084  0.07946334     0.33200
H1231       H  0.53471125  0.81620860  0.96811163     0.44000
H1232       H  0.47823965  0.73349335  0.02462468     0.37600
H1233       H  0.53042798  0.65681811  0.96288570     0.34000
H1234       H  0.61633197  0.83746503  0.01713571     0.25800
H1235       H  0.50341570  0.71232607  0.88049538     0.31800
H1236       H  0.44765828  0.64514881  0.92854646     0.37700
H1237       H  0.61843737  0.83238879  0.08339506     0.32100
H1238       H  0.56450580  0.79551265  0.11136634     0.31000
H1239       H  0.51884349  0.71083941  0.11637317     0.32700
H1240       H  0.45186601  0.63616119  0.00067717     0.31700
H1241       H  0.55453681  0.86662198  0.03020619     0.35700
H1242       H  0.49879681  0.86922706  0.01006215     0.28400
H1243       H  0.59692763  0.60655130  0.02843036     0.32600
H1244       H  0.47829000  0.59743396  0.97437240     0.35500
H1245       H  0.55678931  0.76563952  0.13200898     0.28100
H1246       H  0.50248732  0.86946080  0.97815041     0.41000
H1247       H  0.56735554  0.78972452  0.93511258     0.31000
H1248       H  0.60748344  0.80354704  0.99177345     0.38600
H1249       H  0.46449178  0.66763055  0.02795792     0.30500
H1250       H  0.51218835  0.67415994  0.90133529     0.30500
H1251       H  0.56536172  0.60248578  0.00415422     0.30800
C1252       C  0.17915159  0.76533062  0.84165936     0.02900
C1253       C  0.16441119  0.74465260  0.81272550    -0.13200
C1254       C  0.17856572  0.72525765  0.79757691     0.00400
C1255       C  0.20769747  0.72705222  0.81159486    -0.11800
C1256       C  0.22275014  0.74688791  0.84101473     0.02900
C1257       C  0.20819966  0.76509977  0.85621041    -0.11200
H1258       H  0.14196767  0.74348518  0.80217380     0.08500
H1259       H  0.21862708  0.71290721  0.79951445     0.06000
H1260       H  0.21944079  0.77897084  0.87965174     0.05900
C1261       C  0.68191480  0.52698137  0.84565556     0.02900
C1262       C  0.71089912  0.52453298  0.86045836    -0.13200
C1263       C  0.72490854  0.99434427  0.85635732     0.00400
C1264       C  0.71122930  0.97069354  0.82901606    -0.11800
C1265       C  0.68225635  0.97120483  0.81160371     0.02900
C1266       C  0.66684795  0.99556981  0.82218623    -0.11200
H1267       H  0.72288745  0.54021675  0.88284260     0.08500
H1268       H  0.72330128  0.95175695  0.82124629     0.06000
H1269       H  0.64452750  0.99721883  0.80822509     0.05900
C1270       C  0.39041548  0.94788071  0.17182267     0.02900
C1271       C  0.36141813  0.94700944  0.15749729    -0.13200
C1272       C  0.34666092  0.96693974  0.17162330     0.00400
C1273       C  0.36154117  0.98730006  0.20095322    -0.11800
C1274       C  0.39074384  0.98791462  0.21564796     0.02900
C1275       C  0.40502466  0.96815773  0.20090621    -0.11200
H1276       H  0.35033133  0.93081616  0.13514851     0.08500
H1277       H  0.34630996  0.51132297  0.20711765     0.06000
H1278       H  0.42751471  0.96829921  0.21221784     0.05900
Zr1279     Zr  0.07436500  0.92181958  0.02193849     2.17500
O1280       O  0.08344989  0.85208400  0.02410304    -0.51500
O1281       O  0.12315405  0.94051885  0.04763471    -0.74700
O1282       O  0.08804105  0.90200048  0.98031957    -0.81500
O1283       O  0.06379779  0.91656386  0.09845615    -0.83300
O1284       O  0.06380246  0.93771700  0.93461077    -0.78900
O1285       O  0.08770351  0.88864965  0.07355071    -0.90500
O1286       O  0.12481797  0.50947915  0.05656510    -0.76500
O1287       O  0.07619630  0.98005994  0.99485939    -0.86000
O1288       O  0.07722453  0.97355243  0.05766129    -0.85700
O1289       O  0.03224339  0.92209468  0.97180016    -0.72400
O1290       O  0.03310185  0.91649821  0.02975255    -0.84600
Zr1291     Zr  0.99553078  0.53475266  0.99248227     2.26400
Zr1292     Zr  0.03390261  0.98199738  0.94572058     2.06300
Zr1293     Zr  0.03595816  0.96946840  0.06497361     2.10000
Zr1294     Zr  0.07840614  0.53610885  0.03652752     1.78800
O1295       O  0.01066517  0.93289888  0.08896113    -0.93400
O1296       O  0.09956442  0.57116019  0.00679359    -0.41200
O1297       O  0.03661639  0.53342359  0.04330239    -0.77800
O1298       O  0.03737620  0.54034828  0.98581370    -0.96500
O1299       O  0.99282533  0.97867016  0.95344233    -0.89800
O1300       O  0.99405063  0.97164463  0.01578435    -0.92600
C1301       C  0.13677997  0.97261777  0.05576579     1.01100
C1302       C  0.08106496  0.89162121  0.09720240     1.14000
C1303       C  0.08146838  0.91134837  0.95066237     1.04800
O1304       O  0.06326282  0.52722312  0.93242794    -0.94800
O1305       O  0.00315342  0.53359886  0.91366804    -0.90500
O1306       O  0.98047518  0.56413683  0.93907215    -0.83700
C1307       C  0.98561753  0.55832528  0.91454075     1.11500
O1308       O  0.99142910  0.84970540  0.97469748    -0.96800
Zr1309     Zr  0.99111062  0.92023277  0.98003963     1.88900
O1310       O  0.94671644  0.51749040  0.96432293    -0.73400
O1311       O  0.00707454  0.95177314  0.89289148    -0.52700
O1312       O  0.96778761  0.89842560  0.92364086    -0.97400
O1313       O  0.97144045  0.88563660  0.01159961    -0.54600
O1314       O  0.94483875  0.94781878  0.96004124    -0.73900
C1315       C  0.93362445  0.98148326  0.95674456     0.98400
O1316       O  0.99165508  0.60518020  0.99540276    -0.62800
O1317       O  0.06177869  0.50487896  0.12054900    -0.57600
O1318       O  0.97911816  0.55314806  0.03228203    -0.94200
O1319       O  0.00455190  0.51923968  0.07846854    -0.92700
O1320       O  0.10112147  0.55771096  0.09295083    -0.93000
O1321       O  0.07704326  0.60651008  0.04167497    -0.91800
C1322       C  0.98587317  0.54424909  0.06215237     1.17200
H1323       H  0.09347994  0.97111740  0.07823979     0.33200
H1324       H  0.03749695  0.56478750  0.97543668     0.44000
H1325       H  0.97823230  0.97112679  0.02060875     0.37600
H1326       H  0.03196412  0.90021904  0.95848289     0.34000
H1327       H  0.11706825  0.58183780  0.02382145     0.25800
H1328       H  0.01790781  0.95643833  0.88043652     0.31800
H1329       H  0.96016654  0.92236226  0.91070221     0.37700
H1330       H  0.08572738  0.56350882  0.09864228     0.32100
H1331       H  0.05732935  0.99355430  0.13119231     0.31000
H1332       H  0.01929681  0.94050806  0.11220409     0.32700
H1333       H  0.95580579  0.90193236  0.01032725     0.31700
H1334       H  0.05706480  0.61315125  0.03075302     0.35700
H1335       H  0.00283014  0.61165881  0.01867618     0.28400
H1336       H  0.10289409  0.84972522  0.02737356     0.32600
H1337       H  0.97169802  0.84165783  0.96493559     0.35500
H1338       H  0.08021013  0.49225966  0.12904132     0.28100
H1339       H  0.00259791  0.61597458  0.98462424     0.41000
H1340       H  0.05837077  0.55438136  0.93485179     0.31000
H1341       H  0.10559139  0.55063450  0.99616436     0.38600
H1342       H  0.98559471  0.88801983  0.03447908     0.30500
H1343       H  0.00853544  0.92344242  0.89724602     0.30500
H1344       H  0.07203744  0.84229613  0.00179268     0.30800
C1345       C  0.31577358  0.96700332  0.15478634    -0.20100
C1346       C  0.29963048  0.95826578  0.17138693     0.36100
C1347       C  0.27050428  0.95811557  0.15413023    -0.26100
C1348       C  0.25719526  0.96551399  0.12051325     0.02600
C1349       C  0.27329990  0.97326634  0.10374518     0.27400
C1350       C  0.30234485  0.97439675  0.12109615    -0.25200
N1351       N  0.31282688  0.94888961  0.20550815    -0.82600
H1352       H  0.25806807  0.95222784  0.16694411     0.13200
C1353       C  0.22637498  0.96638547  0.10333950     0.02500
N1354       N  0.26006765  0.97966612  0.06912532    -0.81100
H1355       H  0.31462230  0.98098996  0.10821032     0.18000
C1356       C  0.21202052  0.50237812  0.08859764    -0.26000
C1357       C  0.18302314  0.50571676  0.07368095     0.36100
C1358       C  0.16768436  0.97081636  0.07117315    -0.20000
C1359       C  0.18110581  0.93642923  0.08703554    -0.25300
C1360       C  0.21023045  0.93396399  0.10325284     0.27400
H1361       H  0.22463873  0.52738986  0.08947494     0.13200
N1362       N  0.17035387  0.54182033  0.05851463    -0.82500
H1363       H  0.16884664  0.91151865  0.08732591     0.18000
N1364       N  0.22347706  0.89875708  0.11977257    -0.81100
H1365       H  0.18541974  0.56283662  0.06164715     0.33700
H1366       H  0.15973404  0.53678190  0.03347287     0.38200
H1367       H  0.20868700  0.87778057  0.11772386     0.33600
H1368       H  0.23472082  0.88759985  0.10794659     0.30300
H1369       H  0.27483544  0.98513827  0.06051214     0.33600
H1370       H  0.25002181  0.95386627  0.05812304     0.30300
H1371       H  0.32403969  0.92318426  0.20829613     0.38200
H1372       H  0.29800314  0.94307008  0.21396574     0.33700
C1373       C  0.75565548  0.99490917  0.87271872    -0.20100
C1374       C  0.76974014  0.48662628  0.89524439     0.36100
C1375       C  0.79884102  0.48565967  0.90960854    -0.26100
C1376       C  0.81406539  0.99445929  0.90154252     0.02600
C1377       C  0.79903843  0.00029731  0.86776310     0.27400
C1378       C  0.76996487  0.00092170  0.85372122    -0.25200
N1379       N  0.75495913  0.47465417  0.91341071    -0.82600
H1380       H  0.81027630  0.47582964  0.93455189     0.13200
C1381       C  0.84459464  0.99137029  0.91660144     0.02500
N1382       N  0.81343726  0.00482033  0.84787156    -0.81100
H1383       H  0.75835294  0.00582561  0.82775754     0.18000
C1384       C  0.85646500  0.95770021  0.91113879    -0.26000
C1385       C  0.88534739  0.95327290  0.92434059     0.36100
C1386       C  0.90284638  0.98380334  0.94308307    -0.20000
C1387       C  0.88899257  0.51669090  0.94783813    -0.25300
C1388       C  0.85996206  0.52012882  0.93304039     0.27400
H1389       H  0.84300063  0.93461348  0.89654188     0.13200
N1390       N  0.89671203  0.91818254  0.91807983    -0.82500
H1391       H  0.90129668  0.53612477  0.96756668     0.18000
N1392       N  0.84660441  0.54944179  0.94351780    -0.81100
H1393       H  0.88100537  0.90079096  0.90118093     0.33700
H1394       H  0.90515583  0.90216209  0.93974361     0.38200
H1395       H  0.86132455  0.56584179  0.96249212     0.33600
H1396       H  0.83656690  0.56858435  0.92402276     0.30300
H1397       H  0.79934170  0.00827504  0.82340356     0.33600
H1398       H  0.82497483  0.03052223  0.85495166     0.30300
H1399       H  0.74347092  0.44987184  0.90215404     0.38200
H1400       H  0.76881316  0.46644607  0.93705896     0.33700
C1401       C  0.16433225  0.78717891  0.85698680    -0.20100
C1402       C  0.17037744  0.82676427  0.86536466     0.36100
C1403       C  0.15673679  0.84616206  0.88106525    -0.26100
C1404       C  0.13691953  0.82696362  0.88791480     0.02600
C1405       C  0.13043657  0.78773943  0.87908565     0.27400
C1406       C  0.14423459  0.76814442  0.86361417    -0.25200
N1407       N  0.19005003  0.84716573  0.85750323    -0.82600
H1408       H  0.16129028  0.87648891  0.88769093     0.13200
C1409       C  0.12293096  0.84852941  0.90418633     0.02500
N1410       N  0.11004115  0.76805307  0.88610755    -0.81100
H1411       H  0.13968413  0.73777428  0.85721027     0.18000
C1412       C  0.09498845  0.85858781  0.88634172    -0.26000
C1413       C  0.08096873  0.87941266  0.90088226     0.36100
C1414       C  0.09531740  0.89003592  0.93401273    -0.20000
C1415       C  0.12332820  0.87968367  0.95182802    -0.25300
C1416       C  0.13737197  0.85927264  0.93710918     0.27400
H1417       H  0.08415517  0.85013461  0.86098898     0.13200
N1418       N  0.05217656  0.88913736  0.88232003    -0.82500
H1419       H  0.13436185  0.88795991  0.97720379     0.18000
N1420       N  0.16620762  0.84949203  0.95531022    -0.81100
H1421       H  0.04495511  0.87979153  0.85822883     0.33700
H1422       H  0.04097391  0.87363761  0.89228746     0.38200
H1423       H  0.17385803  0.85992374  0.97914264     0.33600
H1424       H  0.16769551  0.81917641  0.95694885     0.30300
H1425       H  0.10760271  0.73931614  0.87788501     0.33600
H1426       H  0.11761938  0.76676040  0.91142270     0.30300
H1427       H  0.18201333  0.84813890  0.83212668     0.38200
H1428       H  0.19216550  0.87599131  0.86546103     0.33700
C1429       C  0.40176641  0.74103046  0.94302486    -0.20100
C1430       C  0.38501399  0.71290220  0.94843242     0.36100
C1431       C  0.35598323  0.71538990  0.93104855    -0.26100
C1432       C  0.34323357  0.74493460  0.90796226     0.02600
C1433       C  0.36000996  0.77346236  0.90305403     0.27400
C1434       C  0.38899970  0.77141215  0.92089459    -0.25200
N1435       N  0.39745352  0.68217313  0.97173575    -0.82600
H1436       H  0.34317450  0.69416694  0.93562153     0.13200
C1437       C  0.31236929  0.74557677  0.88936112     0.02500
N1438       N  0.34764392  0.80393915  0.87947611    -0.81100
H1439       H  0.40176949  0.79295601  0.91659334     0.18000
C1440       C  0.29781503  0.78000906  0.88787667    -0.26000
C1441       C  0.26875613  0.78167776  0.87085304     0.36100
C1442       C  0.25364939  0.74751575  0.85652162    -0.20000
C1443       C  0.26821209  0.71315987  0.85774165    -0.25300
C1444       C  0.29734958  0.71199595  0.87344132     0.27400
H1445       H  0.30917853  0.80579166  0.90014662     0.13200
N1446       N  0.25459529  0.81803527  0.86781179    -0.82500
H1447       H  0.25681253  0.68689041  0.84674439     0.18000
N1448       N  0.31173808  0.67682283  0.87325473    -0.81100
H1449       H  0.26871092  0.84030179  0.87965173     0.33700
H1450       H  0.24490348  0.82536600  0.84309599     0.38200
H1451       H  0.29768080  0.65479548  0.86065221     0.33600
H1452       H  0.32330316  0.68249869  0.86035973     0.30300
H1453       H  0.36283681  0.82268295  0.87906993     0.33600
H1454       H  0.33806261  0.79099162  0.85649934     0.30300
H1455       H  0.40748746  0.69494111  0.99474921     0.38200
H1456       H  0.38224656  0.66372382  0.97248222     0.33700
C1457       C  0.66774942  0.54949866  0.86152404    -0.20100
C1458       C  0.64664627  0.53247408  0.86782906     0.36100
C1459       C  0.63371604  0.55464685  0.88294290    -0.26100
C1460       C  0.64202936  0.59294103  0.89274371     0.02600
C1461       C  0.66338973  0.60987303  0.88705294     0.27400
C1462       C  0.67612760  0.58790449  0.87151243    -0.25200
N1463       N  0.63366584  0.98565099  0.85912984    -0.82600
H1464       H  0.61733548  0.54189019  0.88759961     0.13200
C1465       C  0.62766910  0.61489134  0.90853444     0.02500
N1466       N  0.67184139  0.64928130  0.89685353    -0.81100
H1467       H  0.69243885  0.60086743  0.86684147     0.18000
C1468       C  0.64038051  0.61937479  0.94241101    -0.26000
C1469       C  0.62638946  0.63766514  0.95838346     0.36100
C1470       C  0.59904080  0.65173047  0.93987324    -0.20000
C1471       C  0.58672522  0.64776749  0.90577520    -0.25300
C1472       C  0.60074958  0.62935191  0.88998325     0.27400
H1473       H  0.66115171  0.60809983  0.95641508     0.13200
N1474       N  0.63993499  0.64212015  0.99319738    -0.82500
H1475       H  0.56585318  0.65844391  0.89138434     0.18000
N1476       N  0.58767563  0.62465049  0.85520082    -0.81100
H1477       H  0.65970734  0.62961673  0.00304585     0.33700
H1478       H  0.64282030  0.67188027  0.99820056     0.38200
H1479       H  0.56772469  0.63658122  0.84505977     0.33600
H1480       H  0.59916237  0.64061760  0.84587828     0.30300
H1481       H  0.68792608  0.65728421  0.89103612     0.33600
H1482       H  0.65502443  0.66732993  0.88319350     0.30300
H1483       H  0.65029430  0.96903149  0.87546067     0.38200
H1484       H  0.61649418  0.97837703  0.86312479     0.33700
C1485       C  0.47427268  0.82552809  0.07826849    -0.20100
C1486       C  0.48611173  0.82885696  0.11268302     0.36100
C1487       C  0.47124273  0.84780891  0.12716010    -0.26100
C1488       C  0.44503090  0.86359276  0.10816460     0.02600
C1489       C  0.43304209  0.86024218  0.07406089     0.27400
C1490       C  0.44787967  0.84155133  0.05940282    -0.25200
N1491       N  0.51326529  0.81357552  0.13285607    -0.82600
H1492       H  0.48026642  0.85083729  0.15340718     0.13200
C1493       C  0.43082892  0.88479561  0.12443980     0.02500
N1494       N  0.40579298  0.87563180  0.05454988    -0.81100
H1495       H  0.43848334  0.83875517  0.03313826     0.18000
C1496       C  0.43122361  0.92553081  0.12431587    -0.26000
C1497       C  0.41885907  0.94687505  0.14056470     0.36100
C1498       C  0.40530311  0.92682220  0.15636912    -0.20000
C1499       C  0.40484460  0.88607488  0.15638455    -0.25300
C1500       C  0.41783643  0.86476089  0.14085818     0.27400
H1501       H  0.44152952  0.94058789  0.11185241     0.13200
N1502       N  0.41943056  0.98867688  0.14044499    -0.82500
H1503       H  0.39437990  0.87097036  0.16864168     0.18000
N1504       N  0.41804882  0.82297871  0.14178477    -0.81100
H1505       H  0.42925780  0.99878176  0.12658267     0.33700
H1506       H  0.43169303  0.99781913  0.16430070     0.38200
H1507       H  0.40795428  0.81280361  0.15532119     0.33600
H1508       H  0.40656868  0.81309230  0.11795773     0.30300
H1509       H  0.40002319  0.87103361  0.02981338     0.33600
H1510       H  0.39181127  0.85984988  0.06019733     0.30300
H1511       H  0.52751727  0.82981910  0.12803169     0.38200
H1512       H  0.51845083  0.81759219  0.15752021     0.33700
C1513       C  0.81340917  0.71084170  0.15338611    -0.20100
C1514       C  0.79683429  0.69816239  0.16838353     0.36100
C1515       C  0.76782809  0.70121746  0.15136032    -0.26100
C1516       C  0.75517992  0.71606569  0.11951155     0.02600
C1517       C  0.77174543  0.72763261  0.10416941     0.27400
C1518       C  0.80074539  0.72499650  0.12132675    -0.25200
N1519       N  0.80955330  0.68197785  0.20068070    -0.82600
H1520       H  0.75499456  0.69219450  0.16297735     0.13200
C1521       C  0.72456089  0.71982220  0.10261225     0.02500
N1522       N  0.75900080  0.74195463  0.07125245    -0.81100
H1523       H  0.81358305  0.73439056  0.10981648     0.18000
C1524       C  0.71273044  0.75670257  0.09270258    -0.26000
C1525       C  0.68379983  0.76172824  0.07672306     0.36100
C1526       C  0.66618361  0.72889430  0.07081913    -0.20000
C1527       C  0.67836239  0.69190786  0.08063466    -0.25300
C1528       C  0.70725073  0.68707947  0.09648731     0.27400
H1529       H  0.72623472  0.78175896  0.09757924     0.13200
N1530       N  0.67251004  0.80002318  0.06661329    -0.82500
H1531       H  0.66534248  0.66643423  0.07632512     0.18000
N1532       N  0.71909772  0.64904417  0.10651498    -0.81100
H1533       H  0.68829096  0.82088582  0.07423277     0.33700
H1534       H  0.66323192  0.80051349  0.04116273     0.38200
H1535       H  0.70352229  0.62804736  0.10049744     0.33600
H1536       H  0.73019559  0.64232013  0.09328405     0.30300
H1537       H  0.77409096  0.74936642  0.06358942     0.33600
H1538       H  0.74742814  0.71921394  0.05628108     0.30300
H1539       H  0.81965749  0.65637748  0.19972136     0.38200
H1540       H  0.79445141  0.67399510  0.20816531     0.33700
C1541       C  0.90370238  0.66707531  0.15870254    -0.20100
C1542       C  0.92365091  0.68576234  0.15126104     0.36100
C1543       C  0.93652215  0.66484812  0.13533794    -0.26100
C1544       C  0.92971174  0.62586116  0.12660432     0.02600
C1545       C  0.90994304  0.60705683  0.13417062     0.27400
C1546       C  0.89713351  0.62787984  0.15019196    -0.25200
N1547       N  0.93033843  0.72602792  0.15929568    -0.82600
H1548       H  0.95183697  0.67899380  0.12951659     0.13200
C1549       C  0.94364170  0.60495735  0.10973258     0.02500
N1550       N  0.90280130  0.56707617  0.12522746    -0.81100
H1551       H  0.88178691  0.61361363  0.15588553     0.18000
C1552       C  0.96075286  0.57334817  0.12525995    -0.26000
C1553       C  0.97431715  0.55246401  0.11018525     0.36100
C1554       C  0.97121695  0.56425620  0.07894963    -0.20000
C1555       C  0.95386836  0.59608659  0.06351859    -0.25300
C1556       C  0.93987538  0.61627941  0.07846956     0.27400
H1557       H  0.96334746  0.56478393  0.14925907     0.13200
N1558       N  0.99089612  0.51922426  0.12651157    -0.82500
H1559       H  0.95112747  0.60538370  0.03964398     0.18000
N1560       N  0.92170243  0.64809166  0.06199828    -0.81100
H1561       H  0.99191738  0.51582772  0.14973690     0.33700
H1562       H  0.98070001  0.49458814  0.11328742     0.38200
H1563       H  0.92120637  0.65279800  0.03915287     0.33600
H1564       H  0.90161556  0.64000770  0.05776749     0.30300
H1565       H  0.88799870  0.55752478  0.13268895     0.33600
H1566       H  0.89348012  0.56556756  0.09980453     0.30300
H1567       H  0.91253293  0.74232198  0.14554657     0.38200
H1568       H  0.94555316  0.73520774  0.15238088     0.33700
C1569       C  0.39943628  0.95743227  0.74204351    -0.20100
C1570       C  0.39226571  0.95849748  0.76826359     0.36100
C1571       C  0.40647930  0.93452446  0.79550134    -0.26100
C1572       C  0.42846169  0.91063829  0.79774991     0.02600
C1573       C  0.43629116  0.91068935  0.77202281     0.27400
C1574       C  0.42148251  0.93372170  0.74431077    -0.25200
N1575       N  0.37077960  0.98417826  0.76726611    -0.82600
H1576       H  0.40033798  0.93440895  0.81511179     0.13200
C1577       C  0.44274460  0.88540521  0.82697852     0.02500
N1578       N  0.45933662  0.88754315  0.77421557    -0.81100
H1579       H  0.42702705  0.93294762  0.72422497     0.18000
C1580       C  0.44541163  0.84540641  0.82289170    -0.26000
C1581       C  0.45854508  0.82056317  0.84982640     0.36100
C1582       C  0.46851723  0.83582923  0.88161680    -0.20000
C1583       C  0.46541890  0.87567697  0.88574440    -0.25300
C1584       C  0.45324211  0.90077185  0.85880050     0.27400
H1585       H  0.43702730  0.83344738  0.79852802     0.13200
N1586       N  0.46151093  0.77984870  0.84499901    -0.82500
H1587       H  0.47345895  0.88751195  0.91013603     0.18000
N1588       N  0.45208541  0.94191031  0.86361410    -0.81100
H1589       H  0.45342029  0.77342599  0.82017809     0.33700
H1590       H  0.44958616  0.76442848  0.85403957     0.38200
H1591       H  0.46066391  0.94848192  0.88844343     0.33600
H1592       H  0.46453932  0.95560147  0.85439029     0.30300
H1593       H  0.46226147  0.89066809  0.75319333     0.33600
H1594       H  0.47720056  0.89841033  0.79350029     0.30300
H1595       H  0.37739517  0.01268345  0.76680646     0.38200
H1596       H  0.36810690  0.98148009  0.78848619     0.33700
C1597       C  0.16218089  0.99119829  0.58374704    -0.20100
C1598       C  0.17881611  0.97581120  0.61514941     0.36100
C1599       C  0.20773315  0.97819365  0.62776724    -0.26100
C1600       C  0.22036981  0.99649151  0.61032838     0.02600
C1601       C  0.20383364  0.01306889  0.57962966     0.27400
C1602       C  0.17485053  0.01028231  0.56665276    -0.25200
N1603       N  0.16729979  0.95831917  0.63512640    -0.82600
H1604       H  0.22095675  0.46778931  0.64915162     0.13200
C1605       C  0.25099555  0.99804652  0.62463897     0.02500
N1606       N  0.21657023  0.03240806  0.56175074    -0.81100
H1607       H  0.16205375  0.02233051  0.54275354     0.18000
C1608       C  0.26474487  0.97899880  0.60884489    -0.26000
C1609       C  0.29384164  0.97913215  0.62212877     0.36100
C1610       C  0.30924856  0.99855692  0.65178635    -0.20000
C1611       C  0.29606961  0.51878864  0.66341147    -0.25300
C1612       C  0.26694403  0.51849992  0.64874272     0.27400
H1613       H  0.25270121  0.96366173  0.58629884     0.13200
N1614       N  0.30779506  0.95849613  0.60633232    -0.82500
H1615       H  0.30738855  0.53664155  0.68469328     0.18000
N1616       N  0.25191847  0.54255830  0.66117499    -0.81100
H1617       H  0.29341559  0.94434368  0.58552181     0.33700
H1618       H  0.31777331  0.97899268  0.59826575     0.38200
H1619       H  0.26564133  0.55844600  0.68131178     0.33600
H1620       H  0.24067092  0.56285494  0.64310439     0.30300
H1621       H  0.20147216  0.04276219  0.53947785     0.33600
H1622       H  0.22704576  0.05677709  0.57518615     0.30300
H1623       H  0.14574678  0.96070706  0.62456274     0.38200
H1624       H  0.17241163  0.47692378  0.64968511     0.33700
C1625       C  0.16321348  0.70141444  0.76801475    -0.20100
C1626       C  0.13997682  0.71598706  0.74063046     0.36100
C1627       C  0.12596308  0.69169590  0.71357680    -0.26100
C1628       C  0.13501871  0.65353060  0.71319036     0.02600
C1629       C  0.15826939  0.63907449  0.74042996     0.27400
C1630       C  0.17210334  0.66314991  0.76752837    -0.25200
N1631       N  0.13109924  0.75551936  0.74009956    -0.82600
H1632       H  0.10822549  0.70272909  0.69242466     0.13200
C1633       C  0.12030469  0.62904261  0.68393014     0.02500
N1634       N  0.16757538  0.59986822  0.74051685    -0.81100
H1635       H  0.18974217  0.65181469  0.78863376     0.18000
C1636       C  0.13473667  0.61576319  0.66674819    -0.26000
C1637       C  0.12196942  0.59124573  0.63963613     0.36100
C1638       C  0.09395848  0.58021261  0.62921132    -0.20000
C1639       C  0.07946978  0.59391065  0.64632528    -0.25300
C1640       C  0.09239415  0.61815288  0.67363948     0.27400
H1641       H  0.15620755  0.62424453  0.67484056     0.13200
N1642       N  0.13755849  0.57683410  0.62319313    -0.82500
H1643       H  0.05797163  0.58566366  0.63834587     0.18000
N1644       N  0.07745657  0.63137563  0.69122489    -0.81100
H1645       H  0.15773458  0.58800803  0.63375121     0.33700
H1646       H  0.13940300  0.54670553  0.62664194     0.38200
H1647       H  0.05708423  0.62092981  0.68043160     0.33600
H1648       H  0.08699160  0.61927764  0.71458388     0.30300
H1649       H  0.18511602  0.59386685  0.76226508     0.33600
H1650       H  0.15190544  0.58118703  0.73971027     0.30300
H1651       H  0.14704501  0.77364223  0.74091749     0.38200
H1652       H  0.11373428  0.76158070  0.71819159     0.33700
C1653       C  0.97135075  0.86561244  0.39104929    -0.20100
C1654       C  0.95054847  0.83824961  0.38834054     0.36100
C1655       C  0.93717362  0.81632086  0.35960483    -0.26100
C1656       C  0.94435788  0.82030293  0.33379783     0.02600
C1657       C  0.96539936  0.84656020  0.33660440     0.27400
C1658       C  0.97843673  0.86910543  0.36491073    -0.25200
N1659       N  0.94287060  0.83266432  0.41445876    -0.82600
H1660       H  0.92106100  0.79582157  0.35729546     0.13200
C1661       C  0.92971930  0.79676294  0.30386948     0.02500
N1662       N  0.97358566  0.84998515  0.31071188    -0.81100
H1663       H  0.99438521  0.88944711  0.36646587     0.18000
C1664       C  0.91288747  0.81553806  0.27447766    -0.26000
C1665       C  0.89894099  0.79426476  0.24564855     0.36100
C1666       C  0.90193178  0.75356277  0.24603269    -0.20000
C1667       C  0.91889456  0.73474191  0.27535865    -0.25300
C1668       C  0.93274819  0.75597290  0.30438616     0.27400
H1669       H  0.91054824  0.84686982  0.27395086     0.13200
N1670       N  0.88210811  0.81409795  0.21584874    -0.82500
H1671       H  0.92112671  0.70341356  0.27559816     0.18000
N1672       N  0.94996761  0.73640560  0.33433755    -0.81100
H1673       H  0.89459159  0.83427307  0.21134366     0.33700
H1674       H  0.86671282  0.82941379  0.21912649     0.38200
H1675       H  0.94980213  0.70639718  0.33064512     0.33600
H1676       H  0.97037366  0.74573818  0.34154973     0.30300
H1677       H  0.98928775  0.87071916  0.31644110     0.33600
H1678       H  0.98211954  0.82331611  0.30884493     0.30300
H1679       H  0.95952080  0.81892279  0.43346593     0.38200
H1680       H  0.92604166  0.81361229  0.40752829     0.33700
C1681       C  0.89900505  0.96280282  0.43753895    -0.20100
C1682       C  0.88515648  0.92704331  0.42538772     0.36100
C1683       C  0.85592209  0.92596620  0.41036628    -0.26100
C1684       C  0.84029511  0.95994051  0.40624187     0.02600
C1685       C  0.85398184  0.99576867  0.41687077     0.27400
C1686       C  0.88305407  0.99677183  0.43272230    -0.25200
N1687       N  0.90064885  0.39710564  0.41973049    -0.82600
H1688       H  0.84522444  0.89858106  0.40167256     0.13200
C1689       C  0.80954851  0.95801032  0.39096573     0.02500
N1690       N  0.83820572  0.03107562  0.41134989    -0.81100
H1691       H  0.89325578  0.02444425  0.44147158     0.18000
C1692       C  0.79559804  0.96834829  0.40948976    -0.26000
C1693       C  0.76654698  0.96958586  0.39548626     0.36100
C1694       C  0.75098191  0.95986335  0.36243924    -0.20000
C1695       C  0.76491554  0.94908043  0.34391853    -0.25300
C1696       C  0.79411956  0.94820186  0.35786146     0.27400
H1697       H  0.80736810  0.47715711  0.43684369     0.13200
N1698       N  0.75308421  0.48376455  0.41570047    -0.82500
H1699       H  0.75295629  0.94180864  0.31844920     0.18000
N1700       N  0.80818020  0.93828187  0.33845660    -0.81100
H1701       H  0.76030859  0.51131326  0.42531790     0.33700
H1702       H  0.75862057  0.46422834  0.43512757     0.38200
H1703       H  0.79383799  0.93182766  0.31459902     0.33600
H1704       H  0.81908380  0.96289013  0.33710673     0.30300
H1705       H  0.85137165  0.05499750  0.42078116     0.33600
H1706       H  0.82768638  0.03534950  0.38618136     0.30300
H1707       H  0.91070837  0.40543055  0.40565083     0.38200
H1708       H  0.88697740  0.37474711  0.40698329     0.33700
C1709       C  0.59738175  0.63297379  0.13215343    -0.20100
C1710       C  0.62319161  0.61510936  0.13948177     0.36100
C1711       C  0.63553360  0.59119186  0.16714386    -0.26100
C1712       C  0.62281446  0.58474301  0.18775887     0.02600
C1713       C  0.59727248  0.60304810  0.18076867     0.27400
C1714       C  0.58496152  0.62708147  0.15322112    -0.25200
N1715       N  0.63712473  0.62190285  0.11933261    -0.82600
H1716       H  0.65552185  0.57806005  0.17304689     0.13200
C1717       C  0.63692524  0.55974133  0.21708827     0.02500
N1718       N  0.58378377  0.59685973  0.20147286    -0.81100
H1719       H  0.56523028  0.64071633  0.14787887     0.18000
C1720       C  0.64163465  0.57443385  0.24771827    -0.26000
C1721       C  0.65482010  0.55184981  0.27591307     0.36100
C1722       C  0.66399127  0.51424182  0.27375692    -0.20000
C1723       C  0.65983787  0.49951224  0.24342454    -0.25300
C1724       C  0.64613744  0.52178679  0.21490904     0.27400
H1725       H  0.63525378  0.60375751  0.24983055     0.13200
N1726       N  0.65930043  0.56733801  0.30687893    -0.82500
H1727       H  0.66703170  0.47046058  0.24201926     0.18000
N1728       N  0.64139497  0.50597997  0.18381793    -0.81100
H1729       H  0.64000964  0.57478783  0.30571916     0.33700
H1730       H  0.70219849  0.08886736  0.30723008     0.38200
H1731       H  0.64964103  0.47794573  0.18651806     0.33600
H1732       H  0.61995084  0.50336623  0.16989721     0.30300
H1733       H  0.56538144  0.61287650  0.19322312     0.33600
H1734       H  0.57822473  0.56751996  0.19981056     0.30300
H1735       H  0.65560215  0.60604844  0.12779454     0.38200
H1736       H  0.64268576  0.65128733  0.12148216     0.33700
C1737       C  0.09385189  0.86439817  0.12501975    -0.20100
C1738       C  0.12105407  0.84983609  0.13535914     0.36100
C1739       C  0.13218503  0.82454572  0.16226873    -0.26100
C1740       C  0.11698026  0.81419861  0.17941820     0.02600
C1741       C  0.08982854  0.82860058  0.16904975     0.27400
C1742       C  0.07857732  0.85353560  0.14201038    -0.25200
N1743       N  0.13763475  0.86182277  0.11935972    -0.82600
H1744       H  0.15323367  0.81396424  0.17070813     0.13200
C1745       C  0.13059804  0.79065405  0.20958548     0.02500
N1746       N  0.07385351  0.81793152  0.18611783    -0.81100
H1747       H  0.05766633  0.86445894  0.13407972     0.18000
C1748       C  0.13359108  0.80656938  0.23918526    -0.26000
C1749       C  0.14794634  0.78645750  0.26865320     0.36100
C1750       C  0.15964322  0.74990034  0.26844642    -0.20000
C1751       C  0.15648377  0.73369747  0.23892751    -0.25300
C1752       C  0.14172402  0.75355997  0.20933583     0.27400
H1753       H  0.12517180  0.83515361  0.23933258     0.13200
N1754       N  0.15086760  0.80301832  0.29882467    -0.82500
H1755       H  0.16539478  0.70540828  0.23902675     0.18000
N1756       N  0.13779021  0.73622216  0.17904421    -0.81100
H1757       H  0.14073854  0.82986024  0.29470893     0.33700
H1758       H  0.17195258  0.80854315  0.31312002     0.38200
H1759       H  0.14732074  0.70892938  0.18310241     0.33600
H1760       H  0.11651820  0.73147408  0.16535051     0.30300
H1761       H  0.05445704  0.83155064  0.17574760     0.33600
H1762       H  0.07015422  0.78801677  0.18310346     0.30300
H1763       H  0.14133743  0.89164892  0.12338529     0.38200
H1764       H  0.15704094  0.84823839  0.12985830     0.33700
C1765       C  0.09543457  0.55630983  0.43775229    -0.20100
C1766       C  0.09784628  0.54091091  0.41039868     0.36100
C1767       C  0.11112200  0.56290905  0.39543381    -0.26100
C1768       C  0.12260625  0.59946680  0.40747993     0.02600
C1769       C  0.12064694  0.61459078  0.43502130     0.27400
C1770       C  0.10696373  0.59302235  0.44967390    -0.25200
N1771       N  0.08704181  0.50304034  0.39793978    -0.82600
H1772       H  0.11252911  0.55148495  0.37415452     0.13200
C1773       C  0.13640702  0.62164699  0.39078233     0.02500
N1774       N  0.13270316  0.65170687  0.44812922    -0.81100
H1775       H  0.10517692  0.60522080  0.47048292     0.18000
C1776       C  0.12732771  0.65945460  0.37952011    -0.26000
C1777       C  0.13996696  0.68136367  0.36384856     0.36100
C1778       C  0.16174739  0.66505521  0.35863108    -0.20000
C1779       C  0.17062784  0.62705891  0.36955584    -0.25300
C1780       C  0.15835634  0.60529009  0.38581576     0.27400
H1781       H  0.11041092  0.67216472  0.38309318     0.13200
N1782       N  0.13123688  0.72061348  0.35425229    -0.82500
H1783       H  0.18737704  0.61445240  0.36559110     0.18000
N1784       N  0.16831366  0.56687350  0.39766579    -0.81100
H1785       H  0.13377818  0.73615896  0.37499482     0.33700
H1786       H  0.11008614  0.72026027  0.33824193     0.38200
H1787       H  0.18440558  0.55906595  0.39183250     0.33600
H1788       H  0.17677901  0.56759457  0.42307667     0.30300
H1789       H  0.12927650  0.65875418  0.46829204     0.33600
H1790       H  0.15417330  0.64922819  0.45659201     0.30300
H1791       H  0.09877775  0.48263317  0.41562382     0.38200
H1792       H  0.08981465  0.49674324  0.37720762     0.33700
C1793       C  0.39761719  0.73221542  0.44489835    -0.20100
C1794       C  0.38062907  0.76417655  0.44389629     0.36100
C1795       C  0.35164561  0.76060909  0.42712950    -0.26100
C1796       C  0.33916553  0.72556345  0.41225982     0.02600
C1797       C  0.35598158  0.69340119  0.41381273     0.27400
C1798       C  0.38495839  0.69713101  0.42989115    -0.25200
N1799       N  0.39271321  0.79996265  0.46019625    -0.82600
H1800       H  0.33864333  0.78529076  0.42575801     0.13200
C1801       C  0.30844788  0.72289036  0.39512236     0.02500
N1802       N  0.34354614  0.65701488  0.39916881    -0.81100
H1803       H  0.39768928  0.67243506  0.43050737     0.18000
C1804       C  0.29570210  0.71127217  0.36240038    -0.26000
C1805       C  0.26685331  0.70696964  0.34569516     0.36100
C1806       C  0.25020610  0.71540265  0.36156860    -0.20000
C1807       C  0.26288658  0.72746969  0.39421972    -0.25300
C1808       C  0.29187347  0.73116981  0.41123584     0.27400
H1809       H  0.30827180  0.70506992  0.34982333     0.13200
N1810       N  0.25459379  0.69291783  0.31289375    -0.82500
H1811       H  0.25009267  0.73410322  0.40642744     0.18000
N1812       N  0.30453693  0.74298005  0.44480685    -0.81100
H1813       H  0.26332195  0.66582136  0.31269587     0.33700
H1814       H  0.25990214  0.71206188  0.29873847     0.38200
H1815       H  0.28944251  0.74810395  0.45294440     0.33600
H1816       H  0.31661574  0.71977892  0.45860783     0.30300
H1817       H  0.35877287  0.63644117  0.40204576     0.33600
H1818       H  0.33274919  0.64637639  0.41176357     0.30300
H1819       H  0.40251139  0.79414146  0.48519129     0.38200
H1820       H  0.37733466  0.82059563  0.45660589     0.33700
C1821       C  0.66853664  0.94699971  0.78181801    -0.20100
C1822       C  0.64523308  0.92355786  0.77619385     0.36100
C1823       C  0.63297010  0.90156676  0.74745768    -0.26100
C1824       C  0.64398571  0.90147824  0.72472678     0.02600
C1825       C  0.66779391  0.92384910  0.73083731     0.27400
C1826       C  0.67955960  0.94675013  0.75904637    -0.25200
N1827       N  0.63432704  0.92173052  0.79978820    -0.82600
H1828       H  0.61462246  0.88444419  0.74266912     0.13200
C1829       C  0.62970976  0.87882484  0.69417438     0.02500
N1830       N  0.67998762  0.92306152  0.70845650    -0.81100
H1831       H  0.69745949  0.96461770  0.76326612     0.18000
C1832       C  0.62060442  0.89792373  0.66404703    -0.26000
C1833       C  0.60531428  0.87814419  0.63461842     0.36100
C1834       C  0.59886772  0.83841245  0.63543342    -0.20000
C1835       C  0.60826477  0.81932414  0.66559472    -0.25300
C1836       C  0.62392513  0.83892025  0.69490727     0.27400
H1837       H  0.62480838  0.92868710  0.66355792     0.13200
N1838       N  0.59564363  0.89856167  0.60412277    -0.82500
H1839       H  0.60369734  0.78871904  0.66626150     0.18000
N1840       N  0.63412151  0.81842739  0.72542067    -0.81100
H1841       H  0.60242788  0.92744154  0.60784912     0.33700
H1842       H  0.57397984  0.89942729  0.59396857     0.38200
H1843       H  0.62786722  0.78931774  0.72174376     0.33600
H1844       H  0.65578757  0.81841903  0.73546686     0.30300
H1845       H  0.69731411  0.94131735  0.71642902     0.33600
H1846       H  0.68719054  0.89480892  0.70851603     0.30300
H1847       H  0.64957587  0.90934285  0.82101784     0.38200
H1848       H  0.61712754  0.90323797  0.79185041     0.33700
C1849       C  0.40170428  0.51983350  0.24336071    -0.20100
C1850       C  0.41935852  0.55127355  0.24611110     0.36100
C1851       C  0.43381483  0.56968995  0.27626959    -0.26100
C1852       C  0.43112367  0.55700557  0.30399119     0.02600
C1853       C  0.41347762  0.52521979  0.30121576     0.27400
C1854       C  0.39869751  0.50725468  0.27079621    -0.25200
N1855       N  0.42218349  0.56498111  0.21811431    -0.82600
H1856       H  0.44684431  0.59447644  0.27790399     0.13200
C1857       C  0.44556728  0.57890215  0.33506887     0.02500
N1858       N  0.41090695  0.51104418  0.32934925    -0.81100
H1859       H  0.38528203  0.48273298  0.26858919     0.18000
C1860       C  0.42996766  0.59397251  0.35028542    -0.26000
C1861       C  0.44215049  0.61795322  0.37786993     0.36100
C1862       C  0.47053980  0.62775544  0.39024853    -0.20000
C1863       C  0.48631857  0.61197845  0.37545411    -0.25300
C1864       C  0.47427558  0.58690738  0.34849519     0.27400
H1865       H  0.40791452  0.58804252  0.33993480     0.13200
N1866       N  0.42553722  0.63341210  0.39263380    -0.82500
H1867       H  0.50821797  0.61884787  0.38526380     0.18000
N1868       N  0.49106007  0.56930977  0.33483139    -0.81100
H1869       H  0.40522260  0.62285312  0.38096442     0.33700
H1870       H  0.42435136  0.66353067  0.38909355     0.38200
H1871       H  0.51175852  0.57799407  0.34760037     0.33600
H1872       H  0.49068883  0.53924249  0.33809797     0.30300
H1873       H  0.39707031  0.48765809  0.32313630     0.33600
H1874       H  0.43029599  0.50028622  0.34569545     0.30300
H1875       H  0.41880179  0.08217297  0.21303370     0.38200
H1876       H  0.44312128  0.56321932  0.22314112     0.33700
C1877       C  0.40076179  0.54385995  0.65701892    -0.20100
C1878       C  0.39354979  0.58296037  0.64745712     0.36100
C1879       C  0.40738431  0.60320654  0.63229454    -0.26100
C1880       C  0.42872518  0.58553279  0.62745473     0.02600
C1881       C  0.43674966  0.54712681  0.63806087     0.27400
C1882       C  0.42259715  0.52653345  0.65270169    -0.25200
N1883       N  0.37252600  0.60206706  0.65361619    -0.82600
H1884       H  0.40175147  0.63303434  0.62448760     0.13200
C1885       C  0.44268382  0.60801748  0.61151644     0.02500
N1886       N  0.45913360  0.52930327  0.63379745    -0.81100
H1887       H  0.42820625  0.49660786  0.66014019     0.18000
C1888       C  0.46778275  0.62652599  0.63080295    -0.26000
C1889       C  0.48115274  0.64974375  0.61670407     0.36100
C1890       C  0.46928090  0.65367752  0.58232366    -0.20000
C1891       C  0.44402586  0.63477792  0.56318586    -0.25300
C1892       C  0.43060881  0.61204143  0.57747061     0.27400
H1893       H  0.47674330  0.62322349  0.65703311     0.13200
N1894       N  0.50693775  0.66843522  0.63723573    -0.82500
H1895       H  0.43467433  0.63769261  0.53691588     0.18000
N1896       N  0.40477031  0.59302644  0.55763075    -0.81100
H1897       H  0.51387893  0.65953461  0.66143820     0.33700
H1898       H  0.50295915  0.69822235  0.63695603     0.38200
H1899       H  0.39850195  0.59924277  0.53300162     0.33600
H1900       H  0.40821353  0.56302890  0.56038989     0.30300
H1901       H  0.46263325  0.50103299  0.64323564     0.33600
H1902       H  0.45296814  0.52681683  0.60878538     0.30300
H1903       H  0.37967608  0.60353214  0.67886336     0.38200
H1904       H  0.36978423  0.63074208  0.64511117     0.33700
C1905       C  0.58926082  0.82764981  0.43857498    -0.20100
C1906       C  0.57621857  0.83360253  0.40446017     0.36100
C1907       C  0.59086825  0.85234724  0.38951164    -0.26100
C1908       C  0.61771849  0.86649195  0.40803775     0.02600
C1909       C  0.63037497  0.86213997  0.44209756     0.27400
C1910       C  0.61607150  0.84261138  0.45706015    -0.25200
N1911       N  0.54799511  0.82154205  0.38523414    -0.82600
H1912       H  0.58116636  0.85665375  0.36336090     0.13200
C1913       C  0.63210289  0.88681843  0.39145987     0.02500
N1914       N  0.65767874  0.87757435  0.46125138    -0.81100
H1915       H  0.62610937  0.83857381  0.48323703     0.18000
C1916       C  0.63319760  0.92749280  0.39224844    -0.26000
C1917       C  0.64686904  0.94797229  0.37696903     0.36100
C1918       C  0.65963425  0.92707699  0.36069188    -0.20000
C1919       C  0.65847184  0.88632730  0.35991633    -0.25300
C1920       C  0.64484739  0.86590852  0.37528785     0.27400
H1921       H  0.62346108  0.94319583  0.40498649     0.13200
N1922       N  0.64883897  0.98966376  0.37910479    -0.82500
H1923       H  0.66851499  0.87049407  0.34759521     0.18000
N1924       N  0.64413469  0.82411931  0.37491993    -0.81100
H1925       H  0.63971655  0.00021063  0.39353099     0.33700
H1926       H  0.63714619  0.00092551  0.35577053     0.38200
H1927       H  0.65437337  0.81319659  0.36182137     0.33600
H1928       H  0.65530148  0.81449761  0.39892040     0.30300
H1929       H  0.66389407  0.87239495  0.48603020     0.33600
H1930       H  0.67148246  0.86238221  0.45498732     0.30300
H1931       H  0.53545416  0.83790505  0.39275506     0.38200
H1932       H  0.54160145  0.82818480  0.36065370     0.33700
C1933       C  0.80847010  0.74286054  0.65133111    -0.20100
C1934       C  0.79237869  0.73496981  0.61791687     0.36100
C1935       C  0.76336127  0.73759186  0.60464412    -0.26100
C1936       C  0.75027159  0.74781475  0.62412697     0.02600
C1937       C  0.76630800  0.75617493  0.65735189     0.27400
C1938       C  0.79529614  0.75338102  0.67069228    -0.25200
N1939       N  0.80551079  0.72364806  0.59780956    -0.82600
H1940       H  0.75081883  0.73095824  0.57914876     0.13200
C1941       C  0.71966114  0.74847459  0.60955693     0.02500
N1942       N  0.75303656  0.76757846  0.67728103    -0.81100
H1943       H  0.80773789  0.75975982  0.69625401     0.18000
C1944       C  0.70593047  0.72203609  0.62077805    -0.26000
C1945       C  0.67686325  0.72058691  0.60669983     0.36100
C1946       C  0.66131852  0.74567068  0.58042606    -0.20000
C1947       C  0.67515075  0.77300085  0.56996555    -0.25300
C1948       C  0.70423590  0.77464947  0.58432386     0.27400
H1949       H  0.71799817  0.70229268  0.64044928     0.13200
N1950       N  0.66311400  0.69410489  0.61920108    -0.82500
H1951       H  0.66324754  0.79254907  0.55006126     0.18000
N1952       N  0.71822848  0.80255330  0.57332496    -0.81100
H1953       H  0.67758679  0.67770706  0.63845892     0.33700
H1954       H  0.65224872  0.71074538  0.62888794     0.38200
H1955       H  0.70386722  0.81962128  0.55451484     0.33600
H1956       H  0.72919469  0.82136201  0.59270647     0.30300
H1957       H  0.76779604  0.77257849  0.70122645     0.33600
H1958       H  0.74308171  0.79412496  0.66832124     0.30300
H1959       H  0.81533619  0.69695987  0.60649880     0.38200
H1960       H  0.79070157  0.71902171  0.57382634     0.33700
C1961       C  0.89600655  0.68887639  0.73879482    -0.20100
C1962       C  0.91705444  0.66231071  0.74178238     0.36100
C1963       C  0.93086921  0.64128416  0.77084791    -0.26100
C1964       C  0.92312495  0.64463533  0.79630171     0.02600
C1965       C  0.90119731  0.66973442  0.79272301     0.27400
C1966       C  0.88825728  0.69217832  0.76428822    -0.25200
N1967       N  0.92395999  0.65623321  0.71512283    -0.82600
H1968       H  0.94769713  0.62195599  0.77362041     0.13200
C1969       C  0.93847122  0.62201642  0.82666761     0.02500
N1970       N  0.89198543  0.67197711  0.81780898    -0.81100
H1971       H  0.87200320  0.71235551  0.76198393     0.18000
C1972       C  0.95063610  0.64161342  0.85661922    -0.26000
C1973       C  0.96621407  0.62143960  0.88574972     0.36100
C1974       C  0.96978958  0.58096768  0.88474872    -0.20000
C1975       C  0.95784450  0.56139456  0.85485540    -0.25300
C1976       C  0.94184282  0.58139430  0.82582405     0.27400
H1977       H  0.94837518  0.67287284  0.85716157     0.13200
N1978       N  0.97893489  0.64193533  0.91617693    -0.82500
H1979       H  0.96049286  0.53020123  0.85429800     0.18000
N1980       N  0.92872790  0.56060714  0.79556674    -0.81100
H1981       H  0.97422540  0.67158464  0.91267860     0.33700
H1982       H  0.00043809  0.63957989  0.92482381     0.38200
H1983       H  0.93333430  0.53093621  0.79917980     0.33600
H1984       H  0.90727322  0.56318638  0.78724334     0.30300
H1985       H  0.87563762  0.69177981  0.81136261     0.33600
H1986       H  0.88402281  0.64471675  0.81942273     0.30300
H1987       H  0.90650570  0.64436291  0.69589303     0.38200
H1988       H  0.93984267  0.63570096  0.72132400     0.33700
C1989       C  0.89997920  0.77838712  0.65435932    -0.20100
C1990       C  0.89270407  0.77683550  0.62070210     0.36100
C1991       C  0.90830450  0.79803757  0.60836748    -0.26100
C1992       C  0.93136344  0.81996415  0.62898984     0.02600
C1993       C  0.93905133  0.82094210  0.66268206     0.27400
C1994       C  0.92318349  0.80024610  0.67502336    -0.25200
N1995       N  0.86971481  0.75345057  0.59924142    -0.82600
H1996       H  0.90240301  0.79763432  0.58245637     0.13200
C1997       C  0.94650468  0.84280971  0.61450442     0.02500
N1998       N  0.96284490  0.84301182  0.68411648    -0.81100
H1999       H  0.92875460  0.80150003  0.70083079     0.18000
C2000       C  0.94807575  0.88332787  0.61827200    -0.26000
C2001       C  0.96038607  0.90640098  0.60285692     0.36100
C2002       C  0.97123893  0.88841641  0.58323642    -0.20000
C2003       C  0.96980216  0.84782338  0.57966683    -0.25300
C2004       C  0.95781706  0.82476331  0.59541304     0.27400
H2005       H  0.93898388  0.89704588  0.63260255     0.13200
N2006       N  0.96118909  0.94798760  0.60630626    -0.82500
H2007       H  0.97845577  0.83401122  0.56491560     0.18000
N2008       N  0.95711026  0.78313659  0.59219782    -0.81100
H2009       H  0.95245577  0.95645122  0.62171010     0.33700
H2010       H  0.94869660  0.95986999  0.58340780     0.38200
H2011       H  0.96618229  0.77452047  0.57717431     0.33600
H2012       H  0.96932341  0.77142781  0.61524971     0.30300
H2013       H  0.96554148  0.84092548  0.70814152     0.33600
H2014       H  0.98035824  0.83040949  0.68359199     0.30300
H2015       H  0.87462537  0.72439219  0.60612043     0.38200
H2016       H  0.86704109  0.75579713  0.57523841     0.33700
loop_ 
_geom_bond_atom_site_label_1 
_geom_bond_atom_site_label_2 
_geom_bond_distance 
_geom_bond_site_symmetry_2 
_ccdc_geom_bond_type 
C1            C2   1.404       .  A
C1            C6   1.401       .  A
C1          C981   1.482       .  S
C2            C3   1.405       .  A
C2            H7   1.083       .  S
C3            C4   1.405       .  A
C3          C953   1.487       .  S
C4            C5   1.404       .  A
C4            H8   1.084       .  S
C5            C6   1.400       .  A
C5          C925   1.483       .  S
C6            H9   1.083       .  S
Zr10         O11   2.439       .  S
Zr10         O12   2.429       .  S
Zr10         O13   2.445       .  S
Zr10         O16   2.436       .  S
Zr10         O18   2.379       .  S
Zr10         O19   2.383       .  S
Zr10         O20   2.403       .  S
Zr10         O21   2.403       .  S
O11          H67   0.991       .  S
O11          H75   0.990       .  S
O12          C32   1.284       .  A
O13          C34   1.287       .  A
O14         Zr24   2.432       .  S
O14          C33   1.285       .  A
O15         Zr23   2.419       .  S
O15          C34   1.281       .  A
O16          C33   1.286       .  A
O17         Zr25   2.416       .  S
O17          C32   1.281       .  A
O18         Zr23   2.391       .  S
O18         Zr25   2.375       .  S
O19         Zr24   2.391       .  S
O19         Zr25   2.377       .  S
O19          H54   0.963       .  S
O20         Zr23   2.398       .  S
O20         Zr40   2.397       .  S
O20          H57   0.966       .  S
O21         Zr24   2.392       .  S
O21         Zr40   2.398       .  S
Zr22         O47   2.442       .  S
Zr22         O41   2.434       .  S
Zr22         O49   2.417       .  S
Zr22         O37   2.425       .  S
Zr22         O28   2.399       .  S
Zr22         O29   2.401       .  S
Zr22         O30   2.375       .  S
Zr22         O31   2.382       .  S
Zr23         O42   2.436       .  S
Zr23         O35   2.435       .  S
Zr23         O36   2.427       .  S
Zr23         O29   2.395       .  S
Zr23         O30   2.383       .  S
Zr24         O26   2.435       .  S
Zr24         O48   2.439       .  S
Zr24         O50   2.437       .  S
Zr24         O28   2.388       .  S
Zr24         O31   2.385       .  S
Zr25         O51   2.437       .  S
Zr25         O52   2.434       .  S
Zr25         O27   2.436       .  S
Zr25         O28   2.393       .  S
Zr25         O29   2.392       .  S
O26          H63   0.990       .  S
O27          H58   0.990       .  S
O27          H72   0.990       .  S
O29          H55   0.967       .  S
O30         Zr40   2.368       .  S
O31         Zr40   2.374       .  S
O31          H56   0.966       .  S
C32         C785   1.487       .  S
C33         C854   1.485       .  S
C34         C882   1.486       .  S
O35          H71   0.990       .  S
O36          C38   1.285       .  A
O37          C38   1.284       .  A
C38         C826   1.478       .  S
O39         Zr40   2.439       .  S
O39          H68   0.990       .  S
Zr40         O43   2.436       .  S
Zr40         O44   2.439       .  S
Zr40         O45   2.431       .  S
O41          C46   1.285       .  A
O42          H59   0.991       .  S
O42          H74   0.989       .  S
O43          H60   0.990       .  S
O44          H64   0.990       .  S
O44          H73   0.990       .  S
O45          C46   1.284       .  A
C46         C938   1.486       .  S
O47          H66   0.990       .  S
O47          H70   0.989       .  S
O48          H62   0.990       .  S
O48          H69   0.990       .  S
O49          C53   1.283       .  A
O50          C53   1.286       .  A
O51          H61   0.990       .  S
O52          H65   0.990       .  S
C53         C897   1.488       .  S
C76          C77   1.404       .  A
C76          C81   1.405       .  A
C76         C770   1.485       .  S
C77          C78   1.400       .  A
C77          H82   1.084       .  S
C78          C79   1.400       .  A
C78         C742   1.471       .  S
C79          C80   1.402       .  A
C79          H83   1.084       .  S
C80          C81   1.405       .  A
C80         C798   1.481       .  S
C81          H84   1.084       .  S
C85          C86   1.401       .  A
C85          C90   1.401       .  A
C85         C910   1.474       .  S
C86          C87   1.401       .  A
C86          H91   1.084       .  S
C87          C88   1.402       .  A
C87        C1722   1.472       .  S
C88          C89   1.405       .  A
C88        H1100   1.084       .  S
C89          C90   1.403       .  A
C89         C686   1.484       .  S
C90          H93   1.084       .  S
H92        C1096   1.084   1_545  S
Zr94         O95   2.439       .  S
Zr94         O96   2.431       .  S
Zr94         O97   2.424       .  S
Zr94        O100   2.428       .  S
Zr94        O102   2.379       .  S
Zr94        O103   2.377       .  S
Zr94        O104   2.405   1_655  S
Zr94        O105   2.399   1_655  S
O95         H151   0.990       .  S
O95         H159   0.990   1_655  S
O96         C116   1.284       .  A
O97         C118   1.283       .  A
O98        Zr108   2.434       .  S
O98         C117   1.286   1_455  A
O99        Zr107   2.429       .  S
O99         C118   1.284   1_455  A
O100        C117   1.284       .  A
O101       Zr109   2.425       .  S
O101       C1124   1.284   1_545  A
O102       Zr107   2.390   1_655  S
O102      Zr1117   2.375       .  S
O103       Zr108   2.382   1_655  S
O103      Zr1117   2.376       .  S
O103        H138   0.963       .  S
O104       Zr107   2.401       .  S
O104       Zr124   2.398       .  S
O104        H141   0.966       .  S
O105       Zr108   2.391       .  S
O105       Zr124   2.401       .  S
Zr106       O131   2.441       .  S
Zr106       O125   2.418       .  S
Zr106       O133   2.429       .  S
Zr106       O121   2.434       .  S
Zr106       O112   2.401       .  S
Zr106       O113   2.399       .  S
Zr106      O1122   2.378   1_545  S
Zr106      O1123   2.382   1_545  S
Zr107       O126   2.438       .  S
Zr107      O1127   2.434       .  S
Zr107      O1128   2.434       .  S
Zr107       O114   2.389       .  S
Zr107      O1121   2.392       .  S
Zr108       O110   2.435       .  S
Zr108      O1140   2.435       .  S
Zr108      O1142   2.426       .  S
Zr108       O115   2.387       .  S
Zr108      O1120   2.394       .  S
Zr109       O135   2.435       .  S
Zr109       O136   2.436       .  S
Zr109       O111   2.437       .  S
Zr109       O112   2.402   1_655  S
Zr109       O113   2.393   1_655  S
Zr109      O1110   2.371   1_545  S
Zr109      O1111   2.372   1_545  S
O110        H147   0.990       .  S
O111        H142   0.990       .  S
O111        H156   0.990       .  S
O112      Zr1116   2.398   1_545  S
O113      Zr1115   2.395   1_545  S
O113        H139   0.968       .  S
O114       Zr124   2.374       .  S
O114      Zr1114   2.378       .  S
O115       Zr124   2.368       .  S
O115      Zr1114   2.380       .  S
O115        H140   0.967       .  S
C116        C673   1.489       .  S
C116       O1109   1.284       .  A
C117        C645   1.497       .  S
C118        C994   1.478       .  S
O119      Zr1115   2.435   1_545  S
O119        H155   0.990   1_455  S
O120      Zr1115   2.438   1_545  S
O120        C122   1.287       .  A
O121        C122   1.285       .  A
C122        C630   1.488       .  S
O123       Zr124   2.439       .  S
O123        H152   0.990       .  S
Zr124       O127   2.437       .  S
Zr124       O128   2.440       .  S
Zr124       O129   2.436       .  S
O125       C1138   1.282   1_545  A
O126        H143   0.990       .  S
O126        H158   0.991       .  S
O127        H144   0.990       .  S
O128        H148   0.990       .  S
O128        H157   0.990       .  S
O129        C130   1.284       .  A
C130        C589   1.469       .  S
C130       O1133   1.281       .  A
O131        H150   0.990       .  S
O131        H154   0.990       .  S
O132      Zr1116   2.435       .  S
O132        H153   0.991       .  S
O132       H1154   0.990   1_565  S
O133        C137   1.285       .  A
O134      Zr1116   2.437   1_545  S
O134        C137   1.286       .  A
O135        H145   0.990       .  S
O136        H149   0.990   1_655  S
C137        C757   1.494       .  S
H146       O1140   0.990       .  S
C160        C165   1.403       .  A
C160       C1169   1.406       .  A
C160        C869   1.483       .  S
C161        C162   1.406       .  A
C161       C1168   1.405       .  A
C161        H166   1.084       .  S
C162        C163   1.404       .  A
C162        C561   1.484       .  S
C163        C164   1.398       .  A
C163        H167   1.084       .  S
C164       C1173   1.397       .  A
C164        C602   1.470       .  S
C165       C1172   1.398   1_545  A
C165        H168   1.084       .  S
C169        C170   1.404       .  A
C169        C174   1.405       .  A
C169        C533   1.486       .  S
C170        C171   1.402       .  A
C170        H175   1.084       .  S
C171        C172   1.402       .  A
C171        C658   1.479       .  S
C172        C173   1.405       .  A
C172        H176   1.083       .  S
C173        C174   1.406       .  A
C173        C505   1.488       .  S
C174        H177   1.084       .  S
Zr178       O179   2.437       .  S
Zr178       O180   2.416       .  S
Zr178       O181   2.444   1_554  S
Zr178       O184   2.430       .  S
Zr178       O186   2.373   1_554  S
Zr178       O187   2.381       .  S
Zr178       O188   2.397   1_554  S
Zr178       O189   2.401       .  S
O179        H235   0.991       .  S
O179        H243   0.990       .  S
O180        C200   1.282       .  A
O181        C202   1.287       .  A
O182       Zr192   2.424       .  S
O182        C201   1.285       .  A
O183       Zr191   2.424       .  S
O183        C202   1.284       .  A
O184        C201   1.285       .  A
O185       Zr193   2.440       .  S
O185        C200   1.285       .  A
O186       Zr191   2.389       .  S
O186       Zr193   2.375   1_556  S
O187       Zr192   2.388       .  S
O187       Zr193   2.368       .  S
O187        H222   0.965       .  S
O188       Zr191   2.398       .  S
O188       Zr208   2.402       .  S
O188        H225   0.967       .  S
O189       Zr192   2.392       .  S
O189       Zr208   2.392   1_554  S
Zr190       O215   2.442       .  S
Zr190       O209   2.429       .  S
Zr190       O217   2.430   1_556  S
Zr190       O205   2.426       .  S
Zr190       O196   2.403   1_556  S
Zr190       O197   2.402       .  S
Zr190       O198   2.377       .  S
Zr190       O199   2.382   1_556  S
Zr191       O210   2.436       .  S
Zr191       O203   2.433       .  S
Zr191       O204   2.427       .  S
Zr191       O197   2.396       .  S
Zr191       O198   2.382       .  S
Zr192       O194   2.436       .  S
Zr192       O216   2.436       .  S
Zr192       O218   2.432       .  S
Zr192       O196   2.391       .  S
Zr192       O199   2.385       .  S
Zr193       O219   2.436       .  S
Zr193       O220   2.436       .  S
Zr193       O195   2.435   1_554  S
Zr193       O196   2.400       .  S
Zr193       O197   2.402   1_554  S
O194        H231   0.990       .  S
O195        H226   0.990   1_556  S
O195        H240   0.990       .  S
O197        H223   0.966       .  S
O198       Zr208   2.375       .  S
O199       Zr208   2.374   1_554  S
O199        H224   0.967       .  S
C200        C518   1.491       .  S
C201        C701   1.494       .  S
C202        C462   1.492       .  S
O203        H239   0.990       .  S
O204        C206   1.284       .  A
O205        C206   1.284       .  A
C206        C574   1.477       .  S
O207       Zr208   2.440       .  S
O207        H236   0.990       .  S
Zr208       O211   2.436       .  S
Zr208       O212   2.442   1_556  S
Zr208       O213   2.429       .  S
O209        C214   1.284       .  A
O210        H227   0.990       .  S
O210        H242   0.990       .  S
O211        H228   0.990       .  S
O212        H232   0.990       .  S
O212        H241   0.989       .  S
O213        C214   1.284       .  A
C214        C421   1.481       .  S
O215        H234   0.991   1_556  S
O215        H238   0.990       .  S
O216        H230   0.990       .  S
O216        H237   0.990       .  S
O217        C221   1.285       .  A
O218        C221   1.284       .  A
O219        H229   0.990       .  S
O220        H233   0.990       .  S
C221        C477   1.495       .  S
C244        C245   1.403       .  A
C244        C249   1.403       .  A
C244        C393   1.483       .  S
C245        C246   1.404       .  A
C245        H250   1.084       .  S
C246        C247   1.408       .  A
C246        C617   1.488       .  S
C247        C248   1.407       .  A
C247        H251   1.083       .  S
C248        C249   1.404       .  A
C248        C434   1.492       .  S
C249        H252   1.083       .  S
C253        C254   1.407       .  A
C253       C1266   1.408   1_545  A
C253        C449   1.491       .  S
C254       C1263   1.405   1_545  A
C254        H259   1.083       .  S
C255        C256   1.401       .  A
C255       C1262   1.399       .  A
C255        C365   1.475       .  S
C256        C257   1.406       .  A
C256        H260   1.084       .  S
C257        C258   1.407       .  A
C257        C813   1.491       .  S
C258       C1261   1.405       .  A
C258        H261   1.083       .  S
C262        C263   1.401       .  A
C262        C267   1.400       .  A
C262        C490   1.477       .  S
C263        C264   1.403       .  A
C263        H268   1.084       .  S
C264        C265   1.406       .  A
C264        C337   1.485       .  S
C265        C266   1.403       .  A
C265       H1277   1.083       .  S
C266        C267   1.401       .  A
C266       C1849   1.476       .  S
C267        H270   1.083       .  S
H269       C1273   1.083   1_545  S
Zr271       O272   2.438       .  S
Zr271       O273   2.427       .  S
Zr271       O274   2.416   1_554  S
Zr271       O277   2.418       .  S
Zr271       O279   2.376       .  S
Zr271       O280   2.378       .  S
Zr271       O281   2.402   1_554  S
Zr271       O282   2.397       .  S
O272        H328   0.991       .  S
O272        H336   0.990       .  S
O273        C293   1.284       .  A
O274        C295   1.282       .  A
O275       Zr285   2.432       .  S
O275        C294   1.285       .  A
O276       Zr284   2.431       .  S
O276        C295   1.285       .  A
O277        C294   1.282       .  A
O278       Zr286   2.421       .  S
O278       C1301   1.282   1_545  A
O279       Zr284   2.383   1_554  S
O279      Zr1294   2.372       .  S
O280       Zr285   2.384       .  S
O280      Zr1294   2.376       .  S
O280        H315   0.965       .  S
O281       Zr284   2.391       .  S
O281       Zr301   2.395   1_455  S
O281        H318   0.967       .  S
O282       Zr285   2.390       .  S
O282       Zr301   2.399   1_454  S
Zr283       O308   2.441       .  S
Zr283       O302   2.419       .  S
Zr283       O310   2.434   1_556  S
Zr283       O298   2.433       .  S
Zr283       O289   2.399   1_656  S
Zr283       O290   2.400   1_655  S
Zr283      O1299   2.380   1_545  S
Zr283      O1300   2.381   1_546  S
Zr284       O303   2.434       .  S
Zr284      O1304   2.435       .  S
Zr284      O1305   2.420       .  S
Zr284       O291   2.382   1_455  S
Zr284      O1298   2.398       .  S
Zr285       O287   2.434       .  S
Zr285      O1317   2.437       .  S
Zr285      O1319   2.415       .  S
Zr285       O292   2.389   1_455  S
Zr285      O1297   2.392       .  S
Zr286       O312   2.435       .  S
Zr286       O313   2.435       .  S
Zr286       O288   2.436   1_554  S
Zr286       O289   2.400       .  S
Zr286       O290   2.395   1_554  S
Zr286      O1287   2.374   1_544  S
Zr286      O1288   2.374   1_545  S
O287        H324   0.990       .  S
O288        H319   0.990   1_556  S
O288        H333   0.990       .  S
O289      Zr1293   2.393   1_545  S
O290      Zr1292   2.397   1_545  S
O290        H316   0.966       .  S
O291       Zr301   2.368       .  S
O291      Zr1291   2.376       .  S
O292       Zr301   2.375   1_554  S
O292      Zr1291   2.380   1_554  S
O292        H317   0.967       .  S
C293        C350   1.488       .  S
C293       O1286   1.283       .  A
C294        C729   1.484       .  S
C295        C406   1.477       .  S
O296      Zr1292   2.437   1_545  S
O296        H332   0.990       .  S
O297      Zr1292   2.423   1_545  S
O297        C299   1.284   1_455  A
O298        C299   1.285       .  A
C299        C966   1.475       .  S
O300       Zr301   2.439       .  S
O300        H329   0.990       .  S
Zr301       O304   2.437       .  S
Zr301       O305   2.439   1_556  S
Zr301       O306   2.424       .  S
O302       C1315   1.283   1_545  A
O303        H320   0.990       .  S
O303        H335   0.990       .  S
O304        H321   0.990       .  S
O305        H325   0.990       .  S
O305        H334   0.990       .  S
O306        C307   1.282       .  A
C307        C378   1.483       .  S
C307       O1310   1.285       .  A
O308        H327   0.990   1_656  S
O308        H331   0.990   1_655  S
O309      Zr1293   2.435   1_545  S
O309        H330   0.990   1_545  S
O309       H1331   0.990   1_545  S
O310        C314   1.286       .  A
O311      Zr1293   2.427   1_545  S
O311        C314   1.284   1_455  A
O312        H322   0.990       .  S
O313        H326   0.990       .  S
C314        C546   1.489       .  S
H323       O1317   0.990       .  S
C337        C338   1.414       .  A
C337        C342   1.405       .  A
C338        C339   1.405       .  A
C338        N343   1.438       .  S
C339        C340   1.402       .  A
C339        H344   1.084       .  S
C340        C341   1.408       .  A
C340        C345   1.479       .  S
C341        C342   1.402       .  A
C341        N346   1.438       .  S
C342        H347   1.083       .  S
N343        H363   1.045       .  S
N343        H364   1.046       .  S
C345        C352   1.408       .  A
C345       C1356   1.399       .  A
N346        H361   1.046       .  S
N346        H362   1.046       .  S
C348        C349   1.405       .  A
C348       C1353   1.401   1_545  A
C348        H353   1.084       .  S
C349       C1358   1.419   1_545  A
C349        N354   1.438       .  S
C350        C351   1.408       .  A
C350       C1357   1.418       .  A
C351        C352   1.405       .  A
C351        H355   1.083       .  S
C352        N356   1.438       .  S
N354        H357   1.046       .  S
N354        H358   1.045       .  S
N356        H359   1.046       .  S
N356        H360   1.046       .  S
C365        C370   1.403       .  A
C365       C1374   1.411       .  A
C366        C367   1.407       .  A
C366       C1373   1.412       .  A
C366        N371   1.437       .  S
C367       C1376   1.402       .  A
C367        H372   1.084       .  S
C368        C369   1.408       .  A
C368       C1375   1.401       .  A
C368        C373   1.476       .  S
C369        C370   1.403       .  A
C369        N374   1.438       .  S
C370        H375   1.084       .  S
N371        H391   1.046       .  S
N371        H392   1.046       .  S
C373        C376   1.399       .  A
C373       C1388   1.407       .  A
N374        H389   1.046       .  S
N374        H390   1.046       .  S
C376        C377   1.405       .  A
C376        H381   1.084       .  S
C377        C378   1.417       .  A
C377        N382   1.438       .  S
C378       C1387   1.406       .  A
C379        C380   1.406       .  A
C379       C1386   1.411   1_545  A
C379        H383   1.084       .  S
C380       C1381   1.406   1_545  A
C380        N384   1.438       .  S
N382        H385   1.046       .  S
N382        H386   1.045       .  S
N384        H387   1.046       .  S
N384        H388   1.046       .  S
C393        C394   1.414       .  A
C393        C398   1.405       .  A
C394        C395   1.403       .  A
C394        N399   1.438       .  S
C395        C396   1.399       .  A
C395        H400   1.084       .  S
C396        C397   1.407       .  A
C396        C401   1.473       .  S
C397        C398   1.405       .  A
C397        N402   1.438       .  S
C398        H403   1.084       .  S
N399        H419   1.046       .  S
N399        H420   1.045       .  S
C401        C404   1.399       .  A
C401        C408   1.407       .  A
N402        H417   1.046       .  S
N402        H418   1.046       .  S
C404        C405   1.403       .  A
C404        H409   1.084       .  S
C405        C406   1.414       .  A
C405        N410   1.437       .  S
C406        C407   1.406       .  A
C407        C408   1.403       .  A
C407        H411   1.084       .  S
C408        N412   1.438       .  S
N410        H413   1.046       .  S
N410        H414   1.046       .  S
N412        H415   1.046       .  S
N412        H416   1.046       .  S
C421        C422   1.412       .  A
C421        C426   1.404       .  A
C422        C423   1.405       .  A
C422        N427   1.438       .  S
C423        C424   1.405       .  A
C423        H428   1.083       .  S
C424        C425   1.413       .  A
C424        C429   1.492       .  S
C425        C426   1.407       .  A
C425        N430   1.438       .  S
C426        H431   1.084       .  S
N427        H447   1.046   1_556  S
N427        H448   1.046       .  S
C429        C432   1.404       .  A
C429        C436   1.413       .  A
N430        H445   1.046       .  S
N430        H446   1.046       .  S
C432        C433   1.406       .  A
C432        H437   1.083       .  S
C433        C434   1.415       .  A
C433        N438   1.438       .  S
C434        C435   1.405       .  A
C435        C436   1.407       .  A
C435        H439   1.083       .  S
C436        N440   1.438       .  S
N438        H441   1.046       .  S
N438        H442   1.046       .  S
N440        H443   1.046       .  S
N440        H444   1.045       .  S
C449        C450   1.415       .  A
C449        C454   1.407       .  A
C450        C451   1.407       .  A
C450       N1463   1.438   1_545  S
C451        C452   1.400       .  A
C451        H456   1.084       .  S
C452        C453   1.408       .  A
C452        C457   1.482       .  S
C453        C454   1.408       .  A
C453        N458   1.437       .  S
C454        H459   1.083       .  S
N455       C1458   1.438       .  S
N455        H475   1.046       .  S
N455        H476   1.046       .  S
C457        C460   1.401       .  A
C457        C464   1.407       .  A
N458        H473   1.046       .  S
N458        H474   1.046       .  S
C460        C461   1.407       .  A
C460        H465   1.084       .  S
C461        C462   1.417       .  A
C461        N466   1.438       .  S
C462        C463   1.410       .  A
C463        C464   1.408       .  A
C463        H467   1.083       .  S
C464        N468   1.438       .  S
N466        H469   1.046       .  S
N466        H470   1.046       .  S
N468        H471   1.046       .  S
N468        H472   1.046       .  S
C477        C478   1.422       .  A
C477        C482   1.411       .  A
C478        C479   1.404       .  A
C478        N483   1.438       .  S
C479        C480   1.397       .  A
C479        H484   1.084       .  S
C480        C481   1.405       .  A
C480        C485   1.475       .  S
C481        C482   1.405       .  A
C481        N486   1.438       .  S
C482        H487   1.083       .  S
N483        H503   1.046       .  S
N483        H504   1.046       .  S
C485        C488   1.401       .  A
C485        C492   1.407       .  A
N486        H501   1.046       .  S
N486        H502   1.046       .  S
C488        C489   1.404       .  A
C488        H493   1.084       .  S
C489        C490   1.413       .  A
C489        N494   1.438       .  S
C490        C491   1.404       .  A
C491        C492   1.402       .  A
C491        H495   1.084       .  S
C492        N496   1.438       .  S
N494        H497   1.046       .  S
N494        H498   1.044       .  S
N496        H499   1.046       .  S
N496        H500   1.046       .  S
C505        C506   1.414       .  A
C505        C510   1.407       .  A
C506        C507   1.404       .  A
C506        N511   1.438       .  S
C507        C508   1.402       .  A
C507        H512   1.084       .  S
C508        C509   1.408       .  A
C508        C513   1.483       .  S
C509        C510   1.405       .  A
C509        N514   1.438       .  S
C510        H515   1.083       .  S
N511        H531   1.045       .  S
N511        H532   1.046       .  S
C513        C516   1.403       .  A
C513        C520   1.407       .  A
N514        H529   1.046       .  S
N514        H530   1.046       .  S
C516        C517   1.409       .  A
C516        H521   1.084       .  S
C517        C518   1.417       .  A
C517        N522   1.438       .  S
C518        C519   1.409       .  A
C519        C520   1.402       .  A
C519        H523   1.083       .  S
C520        N524   1.438       .  S
N522        H525   1.046       .  S
N522        H526   1.045       .  S
N524        H527   1.046       .  S
N524        H528   1.046       .  S
C533        C534   1.413       .  A
C533        C538   1.404       .  A
C534        C535   1.405       .  A
C534        N539   1.438       .  S
C535        C536   1.404       .  A
C535        H540   1.083       .  S
C536        C537   1.414       .  A
C536        C541   1.492       .  S
C537        C538   1.406       .  A
C537        N542   1.438       .  S
C538        H543   1.084       .  S
N539        H559   1.045       .  S
N539        H560   1.046       .  S
C541        C544   1.403       .  A
C541        C548   1.413       .  A
N542        H557   1.046       .  S
N542        H558   1.046       .  S
C544        C545   1.405       .  A
C544        H549   1.083       .  S
C545        C546   1.417       .  A
C545        N550   1.438       .  S
C546        C547   1.406       .  A
C547        C548   1.406       .  A
C547        H551   1.083       .  S
C548        N552   1.438       .  S
N550        H553   1.046   1_545  S
N550        H554   1.046   1_545  S
N552        H555   1.045       .  S
N552        H556   1.046       .  S
C561        C562   1.413       .  A
C561        C566   1.404       .  A
C562        C563   1.403       .  A
C562        N567   1.438       .  S
C563        C564   1.403       .  A
C563        H568   1.084       .  S
C564        C565   1.412       .  A
C564        C569   1.485       .  S
C565        C566   1.405       .  A
C565        N570   1.438       .  S
C566        H571   1.084       .  S
N567        H587   1.045       .  S
N567        H588   1.046       .  S
C569        C572   1.403       .  A
C569        C576   1.412       .  A
N570        H585   1.046       .  S
N570        H586   1.046       .  S
C572        C573   1.404       .  A
C572        H577   1.084       .  S
C573        C574   1.411       .  A
C573        N578   1.438       .  S
C574        C575   1.404       .  A
C575        C576   1.404       .  A
C575        H579   1.084       .  S
C576        N580   1.438       .  S
N578        H581   1.046       .  S
N578        H582   1.046       .  S
N580        H583   1.046       .  S
N580        H584   1.046       .  S
C589        C590   1.417       .  A
C589        C594   1.403       .  A
C590        C591   1.401       .  A
C590        N595   1.440       .  S
C591        C592   1.402       .  A
C591       H1604   1.084       .  S
C592        C593   1.408       .  A
C592        C597   1.479       .  S
C593        C594   1.404       .  A
C593        N598   1.438       .  S
C594        H599   1.084       .  S
N595        H615   1.042       .  S
N595       H1624   1.046       .  S
H596       C1599   1.084       .  S
C597        C600   1.403       .  A
C597       C1612   1.410       .  A
N598        H613   1.046       .  S
N598        H614   1.046       .  S
C600        C601   1.403       .  A
C600        H605   1.084       .  S
C601        C602   1.407       .  A
C601        N606   1.438       .  S
C602       C1611   1.401       .  A
C603        C604   1.403       .  A
C603       C1610   1.401   1_545  A
C603        H607   1.084       .  S
C604       C1605   1.410   1_545  A
C604        N608   1.438       .  S
N606        H609   1.046       .  S
N606        H610   1.045       .  S
N608        H611   1.046       .  S
N608        H612   1.046       .  S
H616       N1603   1.046       .  S
C617        C618   1.415       .  A
C617        C622   1.404       .  A
C618        C619   1.409       .  A
C618        N623   1.438       .  S
C619        C620   1.403       .  A
C619        H624   1.084       .  S
C620        C621   1.409       .  A
C620        C625   1.484       .  S
C621        C622   1.404       .  A
C621        N626   1.438       .  S
C622        H627   1.084       .  S
N623        H643   1.046       .  S
N623        H644   1.046       .  S
C625        C628   1.401       .  A
C625        C632   1.409       .  A
N626        H641   1.046       .  S
N626        H642   1.046       .  S
C628        C629   1.406       .  A
C628        H633   1.084       .  S
C629        C630   1.416       .  A
C629        N634   1.438       .  S
C630        C631   1.408       .  A
C631        C632   1.408       .  A
C631        H635   1.084       .  S
C632        N636   1.438       .  S
N634        H637   1.046       .  S
N634        H638   1.046       .  S
N636        H639   1.046       .  S
N636        H640   1.046       .  S
C645        C646   1.422       .  A
C645        C650   1.411       .  A
C646        C647   1.406       .  A
C646        N651   1.437       .  S
C647        C648   1.398       .  A
C647        H652   1.084       .  S
C648        C649   1.405       .  A
C648        C653   1.478       .  S
C649        C650   1.404       .  A
C649        N654   1.438       .  S
C650        H655   1.083       .  S
N651        H671   1.045       .  S
N651        H672   1.046       .  S
C653        C656   1.401       .  A
C653        C660   1.410       .  A
N654        H669   1.046       .  S
N654        H670   1.046       .  S
C656        C657   1.401       .  A
C656        H661   1.084       .  S
C657        C658   1.409       .  A
C657        N662   1.432       .  S
C658        C659   1.404       .  A
C659        C660   1.406       .  A
C659        H663   1.084       .  S
C660        N664   1.437       .  S
N662        H665   1.045       .  S
N662        H666   1.046       .  S
N664        H667   1.046       .  S
N664        H668   1.046       .  S
C673        C674   1.417       .  A
C673        C678   1.406       .  A
C674        C675   1.408       .  A
C674       N1687   1.438       .  S
C675        C676   1.403       .  A
C675        H680   1.084       .  S
C676        C677   1.412       .  A
C676        C681   1.488       .  S
C677        C678   1.403       .  A
C677        N682   1.438       .  S
C678        H683   1.083       .  S
N679       C1682   1.437       .  S
N679        H699   1.046       .  S
N679        H700   1.045       .  S
C681        C684   1.403       .  A
C681        C688   1.414       .  A
N682        H697   1.045       .  S
N682        H698   1.046       .  S
C684        C685   1.400       .  A
C684       H1697   1.084       .  S
C685        C686   1.410       .  A
C685       N1698   1.433       .  S
C686        C687   1.404       .  A
C687        C688   1.408       .  A
C687        H691   1.084       .  S
C688        N692   1.438       .  S
H689       C1692   1.084       .  S
N690       C1693   1.432       .  S
N690        H693   1.045   1_565  S
N690        H694   1.046       .  S
N692        H695   1.045       .  S
N692        H696   1.046       .  S
C701        C702   1.421       .  A
C701        C706   1.411       .  A
C702        C703   1.405       .  A
C702        N707   1.438       .  S
C703        C704   1.400       .  A
C703        H708   1.084       .  S
C704        C705   1.406       .  A
C704        C709   1.480       .  S
C705        C706   1.404       .  A
C705        N710   1.438       .  S
C706        H711   1.083       .  S
N707        H727   1.046       .  S
N707        H728   1.046       .  S
C709        C712   1.403       .  A
C709        C716   1.411       .  A
N710        H725   1.046       .  S
N710        H726   1.045       .  S
C712        C713   1.401       .  A
C712        H717   1.084       .  S
C713        C714   1.407       .  A
C713        N718   1.432       .  S
C714        C715   1.402       .  A
C714       C1095   1.475   1_545  S
C715        C716   1.405       .  A
C715        H719   1.084   1_545  S
C716        N720   1.438       .  S
N718        H721   1.045       .  S
N718       H1730   1.046       .  S
N720        H723   1.046   1_545  S
N720        H724   1.045       .  S
H722       N1726   1.045       .  S
C729        C730   1.416       .  A
C729        C734   1.406       .  A
C730        C731   1.404       .  A
C730        N735   1.439       .  S
C731        C732   1.403       .  A
C731        H736   1.084       .  S
C732        C733   1.410       .  A
C732        C737   1.485       .  S
C733        C734   1.404       .  A
C733        N738   1.438       .  S
C734        H739   1.084       .  S
N735        H755   1.046       .  S
N735        H756   1.046       .  S
C737        C740   1.405       .  A
C737        C744   1.413       .  A
N738        H753   1.046       .  S
N738        H754   1.045       .  S
C740        C741   1.403       .  A
C740        H745   1.084       .  S
C741        C742   1.407       .  A
C741        N746   1.438       .  S
C742        C743   1.400       .  A
C743        C744   1.405       .  A
C743        H747   1.084       .  S
C744        N748   1.438       .  S
N746        H749   1.045       .  S
N746        H750   1.046       .  S
N748        H751   1.046       .  S
N748        H752   1.046       .  S
C757        C758   1.419       .  A
C757        C762   1.409       .  A
C758        C759   1.407       .  A
C758        N763   1.438       .  S
C759        C760   1.403       .  A
C759        H764   1.084       .  S
C760        C761   1.410       .  A
C760        C765   1.489       .  S
C761        C762   1.406       .  A
C761        N766   1.438       .  S
C762        H767   1.083       .  S
N763        H783   1.046   1_545  S
N763        H784   1.046       .  S
C765        C768   1.404       .  A
C765        C772   1.413       .  A
N766        H781   1.045       .  S
N766        H782   1.046       .  S
C768        C769   1.403       .  A
C768        H773   1.084       .  S
C769        C770   1.410       .  A
C769        N774   1.433       .  S
C770        C771   1.404       .  A
C771        C772   1.406       .  A
C771        H775   1.084       .  S
C772        N776   1.438       .  S
N774        H777   1.045       .  S
N774        H778   1.046       .  S
N776        H779   1.045       .  S
N776        H780   1.046       .  S
C785        C786   1.419       .  A
C785        C790   1.407       .  A
C786        C787   1.403       .  A
C786        N791   1.438       .  S
C787        C788   1.401       .  A
C787        H792   1.084       .  S
C788        C789   1.409       .  A
C788        C793   1.482       .  S
C789        C790   1.404       .  A
C789        N794   1.438       .  S
C790        H795   1.083       .  S
N791        H811   1.046       .  S
N791        H812   1.046       .  S
C793        C796   1.403       .  A
C793        C800   1.411       .  A
N794        H809   1.046       .  S
N794        H810   1.046       .  S
C796        C797   1.402       .  A
C796        H801   1.084       .  S
C797        C798   1.409       .  A
C797        N802   1.432       .  S
C798        C799   1.403       .  A
C799        C800   1.403       .  A
C799        H803   1.084       .  S
C800        N804   1.438       .  S
N802        H805   1.045       .  S
N802        H806   1.046       .  S
N804        H807   1.045       .  S
N804        H808   1.046       .  S
C813        C814   1.416       .  A
C813        C818   1.407       .  A
C814        C815   1.404       .  A
C814        N819   1.438       .  S
C815        C816   1.402       .  A
C815        H820   1.084       .  S
C816        C817   1.411       .  A
C816        C821   1.486       .  S
C817        C818   1.404       .  A
C817        N822   1.438       .  S
C818        H823   1.083       .  S
N819        H839   1.045       .  S
N819        H840   1.046       .  S
C821        C824   1.403       .  A
C821        C828   1.412       .  A
N822        H837   1.046       .  S
N822        H838   1.046       .  S
C824        C825   1.404       .  A
C824        H829   1.084       .  S
C825        C826   1.413       .  A
C825        N830   1.437       .  S
C826        C827   1.403       .  A
C827        C828   1.403       .  A
C827        H831   1.084       .  S
C828        N832   1.438       .  S
N830        H833   1.045       .  S
N830        H834   1.046       .  S
N832        H835   1.046       .  S
N832        H836   1.046       .  S
C841        C842   1.407       .  A
C841        C846   1.402   1_545  A
C841       C1274   1.480   1_545  S
C842        C843   1.403       .  A
C842        N847   1.433       .  S
C843        C844   1.406       .  A
C843        H848   1.084       .  S
C844        C845   1.415       .  A
C844        C849   1.492       .  S
C845        C846   1.408   1_545  A
C845        N850   1.438       .  S
C846        H851   1.084       .  S
N847        H868   1.045       .  S
N847       H1875   1.046       .  S
C849        C852   1.405       .  A
C849        C856   1.413       .  A
N850        H865   1.045   1_545  S
N850        H866   1.046   1_545  S
C852        C853   1.406       .  A
C852        H857   1.083       .  S
C853        C854   1.413       .  A
C853        N858   1.438       .  S
C854        C855   1.406       .  A
C855        C856   1.408       .  A
C855        H859   1.084       .  S
C856        N860   1.438       .  S
N858        H861   1.046       .  S
N858        H862   1.046       .  S
N860        H863   1.046       .  S
N860        H864   1.046       .  S
H867       N1855   1.046       .  S
C869        C870   1.414       .  A
C869        C874   1.404       .  A
C870        C871   1.405       .  A
C870        N875   1.438       .  S
C871        C872   1.400       .  A
C871        H876   1.084       .  S
C872        C873   1.408       .  A
C872        C877   1.476       .  S
C873        C874   1.403       .  A
C873        N878   1.438       .  S
C874        H879   1.084       .  S
N875        H895   1.046       .  S
N875        H896   1.046       .  S
C877        C880   1.398       .  A
C877        C884   1.407       .  A
N878        H893   1.046       .  S
N878        H894   1.045       .  S
C880        C881   1.404       .  A
C880        H885   1.084       .  S
C881        C882   1.419       .  A
C881        N886   1.437       .  S
C882        C883   1.407       .  A
C883        C884   1.406       .  A
C883        H887   1.084       .  S
C884        N888   1.438       .  S
N886        H889   1.046       .  S
N886        H890   1.045       .  S
N888        H891   1.045       .  S
N888        H892   1.046       .  S
C897        C898   1.418       .  A
C897        C902   1.410       .  A
C898        C899   1.404       .  A
C898        N903   1.438       .  S
C899        C900   1.399       .  A
C899        H904   1.084       .  S
C900        C901   1.406       .  A
C900        C905   1.475       .  S
C901        C902   1.404       .  A
C901        N906   1.438       .  S
C902        H907   1.083       .  S
N903        H923   1.046       .  S
N903        H924   1.045       .  S
C905        C908   1.401       .  A
C905        C912   1.408       .  A
N906        H921   1.046       .  S
N906        H922   1.045       .  S
C908        C909   1.405       .  A
C908        H913   1.084       .  S
C909        C910   1.411       .  A
C909        N914   1.438       .  S
C910        C911   1.402       .  A
C911        C912   1.402       .  A
C911        H915   1.084       .  S
C912        N916   1.438       .  S
N914        H917   1.046       .  S
N914        H918   1.044       .  S
N916        H919   1.046       .  S
N916        H920   1.045       .  S
C925        C926   1.414       .  A
C925        C930   1.403       .  A
C926        C927   1.405       .  A
C926        N931   1.438       .  S
C927        C928   1.403       .  A
C927        H932   1.084       .  S
C928        C929   1.410       .  A
C928        C933   1.483       .  S
C929        C930   1.403       .  A
C929        N934   1.438       .  S
C930        H935   1.084       .  S
N931        H951   1.046       .  S
N931        H952   1.046       .  S
C933        C936   1.400       .  A
C933        C940   1.410       .  A
N934        H949   1.046       .  S
N934        H950   1.045       .  S
C936        C937   1.403       .  A
C936        H941   1.084       .  S
C937        C938   1.415       .  A
C937        N942   1.438       .  S
C938        C939   1.407       .  A
C939        C940   1.409       .  A
C939        H943   1.084       .  S
C940        N944   1.438       .  S
N942        H945   1.046       .  S
N942        H946   1.046       .  S
N944        H947   1.046       .  S
N944        H948   1.045       .  S
C953        C954   1.414       .  A
C953        C958   1.406       .  A
C954        C955   1.404       .  A
C954        N959   1.438       .  S
C955        C956   1.403       .  A
C955        H960   1.084       .  S
C956        C957   1.410       .  A
C956        C961   1.484       .  S
C957        C958   1.404       .  A
C957        N962   1.438       .  S
C958        H963   1.084       .  S
N959        H979   1.046       .  S
N959        H980   1.046       .  S
C961        C964   1.404       .  A
C961        C968   1.411       .  A
N962        H977   1.046       .  S
N962        H978   1.046       .  S
C964        C965   1.405       .  A
C964        H969   1.084       .  S
C965        C966   1.411       .  A
C965        N970   1.438       .  S
C966        C967   1.403       .  A
C967        C968   1.403       .  A
C967        H971   1.084       .  S
C968        N972   1.438       .  S
N970        H973   1.046       .  S
N970        H974   1.046   1_655  S
N972        H975   1.046       .  S
N972        H976   1.046       .  S
C981        C982   1.413       .  A
C981        C986   1.404       .  A
C982        C983   1.402       .  A
C982        N987   1.438       .  S
C983        C984   1.403       .  A
C983        H988   1.084       .  S
C984        C985   1.411       .  A
C984        C989   1.484       .  S
C985        C986   1.404       .  A
C985        N990   1.438       .  S
C986        H991   1.083       .  S
N987       H1007   1.046       .  S
N987       H1008   1.046       .  S
C989        C992   1.404       .  A
C989        C996   1.411       .  A
N990       H1005   1.046       .  S
N990       H1006   1.046       .  S
C992        C993   1.405       .  A
C992        H997   1.084       .  S
C993        C994   1.413       .  A
C993        N998   1.438       .  S
C994        C995   1.404       .  A
C995        C996   1.402       .  A
C995        H999   1.084       .  S
C996       N1000   1.438       .  S
N998       H1001   1.046       .  S
N998       H1002   1.046       .  S
N1000      H1003   1.046       .  S
N1000      H1004   1.046       .  S
C1009      C1010   1.403       .  A
C1009      C1014   1.403       .  A
C1009      C1989   1.482       .  S
C1010      C1011   1.404       .  A
C1010      H1015   1.083       .  S
C1011      C1012   1.403       .  A
C1011      C1961   1.484       .  S
C1012      C1013   1.402       .  A
C1012      H1016   1.084       .  S
C1013      C1014   1.400       .  A
C1013      C1933   1.479       .  S
C1014      H1017   1.084       .  S
Zr1018     O1019   2.440       .  S
Zr1018     O1020   2.420       .  S
Zr1018     O1021   2.432       .  S
Zr1018     O1024   2.440       .  S
Zr1018     O1026   2.382       .  S
Zr1018     O1027   2.379       .  S
Zr1018     O1028   2.403       .  S
Zr1018     O1029   2.398       .  S
O1019      H1075   0.991       .  S
O1019      H1083   0.990       .  S
O1020      C1040   1.282       .  A
O1021      C1042   1.285       .  A
O1022     Zr1032   2.433       .  S
O1022      C1041   1.285       .  A
O1023     Zr1031   2.421       .  S
O1023      C1042   1.282       .  A
O1024      C1041   1.287       .  A
O1025     Zr1033   2.426       .  S
O1025      C1040   1.283       .  A
O1026     Zr1031   2.393       .  S
O1026     Zr1033   2.373       .  S
O1027     Zr1032   2.386       .  S
O1027     Zr1033   2.375       .  S
O1027      H1062   0.967       .  S
O1028     Zr1031   2.401       .  S
O1028     Zr1048   2.393       .  S
O1028      H1065   0.965       .  S
O1029     Zr1032   2.391       .  S
O1029     Zr1048   2.393       .  S
Zr1030     O1055   2.442       .  S
Zr1030     O1049   2.421       .  S
Zr1030     O1057   2.418       .  S
Zr1030     O1045   2.431       .  S
Zr1030     O1036   2.399       .  S
Zr1030     O1037   2.398       .  S
Zr1030     O1038   2.375       .  S
Zr1030     O1039   2.386       .  S
Zr1031     O1050   2.439       .  S
Zr1031     O1043   2.435       .  S
Zr1031     O1044   2.433       .  S
Zr1031     O1037   2.392       .  S
Zr1031     O1038   2.378       .  S
Zr1032     O1034   2.434       .  S
Zr1032     O1056   2.438       .  S
Zr1032     O1058   2.431       .  S
Zr1032     O1036   2.392       .  S
Zr1032     O1039   2.387       .  S
Zr1033     O1059   2.434       .  S
Zr1033     O1060   2.436       .  S
Zr1033     O1035   2.437       .  S
Zr1033     O1036   2.396       .  S
Zr1033     O1037   2.398       .  S
O1034      H1071   0.991       .  S
O1035      H1066   0.990       .  S
O1035      H1080   0.990       .  S
O1037      H1063   0.966       .  S
O1038     Zr1048   2.371       .  S
O1039     Zr1048   2.377       .  S
O1039      H1064   0.966       .  S
C1040      C1793   1.487       .  S
C1041      C1862   1.486       .  S
C1042      C1890   1.486       .  S
O1043      H1079   0.990       .  S
O1044      C1046   1.286       .  A
O1045      C1046   1.284       .  A
C1046      C1834   1.482       .  S
O1047     Zr1048   2.439       .  S
O1047      H1076   0.990       .  S
Zr1048     O1051   2.436       .  S
Zr1048     O1052   2.440       .  S
Zr1048     O1053   2.423       .  S
O1049      C1054   1.283       .  A
O1050      H1067   0.991       .  S
O1050      H1082   0.989       .  S
O1051      H1068   0.990       .  S
O1052      H1072   0.990       .  S
O1052      H1081   0.990       .  S
O1053      C1054   1.283       .  A
C1054      C1946   1.476       .  S
O1055      H1074   0.990       .  S
O1055      H1078   0.990       .  S
O1056      H1070   0.990       .  S
O1056      H1077   0.990       .  S
O1057      C1061   1.283       .  A
O1058      C1061   1.285       .  A
O1059      H1069   0.990       .  S
O1060      H1073   0.990       .  S
C1061      C1905   1.482       .  S
C1084      C1085   1.405       .  A
C1084      C1089   1.405       .  A
C1084      C1778   1.484       .  S
C1085      C1086   1.401       .  A
C1085      H1090   1.084       .  S
C1086      C1087   1.401       .  A
C1086      C1750   1.474       .  S
C1087      C1088   1.404       .  A
C1087      H1091   1.084       .  S
C1088      C1089   1.403       .  A
C1088      C1806   1.482       .  S
C1089      H1092   1.084       .  S
C1093      C1094   1.401       .  A
C1093      C1098   1.403       .  A
C1093      C1918   1.476       .  S
C1094      C1095   1.401       .  A
C1094      H1099   1.084       .  S
C1095      C1096   1.404       .  A
C1096      C1097   1.404       .  A
C1097      C1098   1.404       .  A
C1097      C1694   1.484       .  S
C1098      H1101   1.084       .  S
Zr1102     O1103   2.439       .  S
Zr1102     O1104   2.433       .  S
Zr1102     O1105   2.427       .  S
Zr1102     O1108   2.427       .  S
Zr1102     O1110   2.379       .  S
Zr1102     O1111   2.379       .  S
Zr1102     O1112   2.404   1_655  S
Zr1102     O1113   2.401   1_655  S
O1103      H1159   0.991       .  S
O1103      H1167   0.990   1_655  S
O1104      C1124   1.284       .  A
O1105      C1126   1.284       .  A
O1106     Zr1116   2.440       .  S
O1106      C1125   1.288   1_455  A
O1107     Zr1115   2.425       .  S
O1107      C1126   1.284   1_455  A
O1108      C1125   1.284       .  A
O1109     Zr1117   2.427       .  S
O1110     Zr1115   2.393   1_655  S
O1111     Zr1116   2.382   1_655  S
O1111      H1146   0.963       .  S
O1112     Zr1115   2.397       .  S
O1112     Zr1132   2.392       .  S
O1112      H1149   0.966       .  S
O1113     Zr1116   2.391       .  S
O1113     Zr1132   2.400       .  S
Zr1114     O1139   2.440       .  S
Zr1114     O1133   2.414       .  S
Zr1114     O1141   2.427       .  S
Zr1114     O1129   2.431       .  S
Zr1114     O1120   2.397       .  S
Zr1114     O1121   2.397       .  S
Zr1115     O1134   2.437       .  S
Zr1115     O1122   2.382       .  S
Zr1116     O1118   2.436       .  S
Zr1116     O1123   2.384       .  S
Zr1117     O1143   2.435       .  S
Zr1117     O1144   2.435       .  S
Zr1117     O1119   2.437       .  S
Zr1117     O1120   2.397   1_655  S
Zr1117     O1121   2.391   1_655  S
O1118      H1155   0.991       .  S
O1119      H1150   0.990       .  S
O1119      H1164   0.990       .  S
O1121      H1147   0.967       .  S
O1122     Zr1132   2.375       .  S
O1123     Zr1132   2.373       .  S
O1123      H1148   0.967       .  S
C1124      C1681   1.492       .  S
C1125      C1653   1.499       .  S
C1126      C2002   1.474       .  S
O1127      H1163   0.990       .  S
O1128      C1130   1.286       .  A
O1129      C1130   1.285       .  A
C1130      C1638   1.484       .  S
O1131     Zr1132   2.440       .  S
O1131      H1160   0.990       .  S
Zr1132     O1135   2.438       .  S
Zr1132     O1136   2.439       .  S
Zr1132     O1137   2.429       .  S
O1134      H1151   0.990       .  S
O1134      H1166   0.990       .  S
O1135      H1152   0.990       .  S
O1136      H1156   0.990       .  S
O1136      H1165   0.990       .  S
O1137      C1138   1.284       .  A
C1138      C1597   1.470       .  S
O1139      H1158   0.990       .  S
O1139      H1162   0.990       .  S
O1140      H1161   0.990       .  S
O1141      C1145   1.285       .  A
O1142      C1145   1.284       .  A
O1143      H1153   0.990       .  S
O1144      H1157   0.990   1_655  S
C1145      C1765   1.487       .  S
C1168      C1173   1.403       .  A
C1168      C1877   1.481       .  S
C1169      C1170   1.406   1_545  A
C1169      H1174   1.084       .  S
C1170      C1171   1.403       .  A
C1170      C1569   1.484       .  S
C1171      C1172   1.399       .  A
C1171      H1175   1.084       .  S
C1172      C1610   1.472       .  S
C1173      H1176   1.084       .  S
C1177      C1178   1.406       .  A
C1177      C1182   1.403       .  A
C1177      C1541   1.481       .  S
C1178      C1179   1.405       .  A
C1178      H1183   1.084       .  S
C1179      C1180   1.403       .  A
C1179      C1666   1.481       .  S
C1180      C1181   1.403       .  A
C1180      H1184   1.084       .  S
C1181      C1182   1.400       .  A
C1181      C1513   1.479       .  S
C1182      H1185   1.084       .  S
Zr1186     O1187   2.437       .  S
Zr1186     O1188   2.420       .  S
Zr1186     O1189   2.432   1_554  S
Zr1186     O1192   2.429       .  S
Zr1186     O1194   2.378   1_554  S
Zr1186     O1195   2.382       .  S
Zr1186     O1196   2.401   1_554  S
Zr1186     O1197   2.398       .  S
O1187      H1243   0.991       .  S
O1187      H1251   0.990       .  S
O1188      C1208   1.284       .  A
O1189      C1210   1.285       .  A
O1190     Zr1200   2.421       .  S
O1190      C1209   1.284       .  A
O1191     Zr1199   2.433       .  S
O1191      C1210   1.286       .  A
O1192      C1209   1.285       .  A
O1193     Zr1201   2.432       .  S
O1193      C1208   1.283       .  A
O1194     Zr1199   2.386       .  S
O1194     Zr1201   2.373   1_556  S
O1195     Zr1200   2.382       .  S
O1195     Zr1201   2.374       .  S
O1195      H1230   0.964       .  S
O1196     Zr1199   2.391       .  S
O1196     Zr1216   2.400       .  S
O1196      H1233   0.967       .  S
O1197     Zr1200   2.388       .  S
O1197     Zr1216   2.395   1_554  S
Zr1198     O1223   2.442       .  S
Zr1198     O1217   2.432       .  S
Zr1198     O1225   2.439   1_556  S
Zr1198     O1213   2.435       .  S
Zr1198     O1204   2.405   1_556  S
Zr1198     O1205   2.404       .  S
Zr1198     O1206   2.380       .  S
Zr1198     O1207   2.381   1_556  S
Zr1199     O1218   2.437       .  S
Zr1199     O1211   2.434       .  S
Zr1199     O1212   2.430       .  S
Zr1199     O1205   2.393       .  S
Zr1199     O1206   2.385       .  S
Zr1200     O1202   2.436       .  S
Zr1200     O1224   2.435       .  S
Zr1200     O1226   2.417       .  S
Zr1200     O1204   2.393       .  S
Zr1200     O1207   2.385       .  S
Zr1201     O1227   2.435       .  S
Zr1201     O1228   2.436       .  S
Zr1201     O1203   2.435   1_554  S
Zr1201     O1204   2.400       .  S
Zr1201     O1205   2.394   1_554  S
O1202      H1239   0.990       .  S
O1203      H1234   0.990   1_556  S
O1203      H1248   0.990       .  S
O1205      H1231   0.966       .  S
O1206     Zr1216   2.375       .  S
O1207     Zr1216   2.375   1_554  S
O1207      H1232   0.965       .  S
C1208      C1526   1.493       .  S
C1209      C1709   1.485       .  S
C1210      C1470   1.488       .  S
O1211      H1247   0.990       .  S
O1212      C1214   1.285       .  A
O1213      C1214   1.286       .  A
C1214      C1582   1.481       .  S
O1215     Zr1216   2.440       .  S
O1215      H1244   0.990       .  S
Zr1216     O1219   2.438       .  S
Zr1216     O1220   2.439   1_556  S
Zr1216     O1221   2.429       .  S
O1217      C1222   1.285       .  A
O1218      H1235   0.990       .  S
O1218      H1250   0.990       .  S
O1219      H1236   0.990       .  S
O1220      H1240   0.991       .  S
O1220      H1249   0.989       .  S
O1221      C1222   1.284       .  A
C1222      C1429   1.484       .  S
O1223      H1242   0.990   1_556  S
O1223      H1246   0.990       .  S
O1224      H1238   0.990       .  S
O1224      H1245   0.990       .  S
O1225      C1229   1.287       .  A
O1226      C1229   1.282       .  A
O1227      H1237   0.990       .  S
O1228      H1241   0.990       .  S
C1229      C1485   1.486       .  S
C1252      C1253   1.402       .  A
C1252      C1257   1.400       .  A
C1252      C1401   1.478       .  S
C1253      C1254   1.403       .  A
C1253      H1258   1.084       .  S
C1254      C1255   1.406       .  A
C1254      C1625   1.484       .  S
C1255      C1256   1.405       .  A
C1255      H1259   1.083       .  S
C1256      C1257   1.403       .  A
C1256      C1442   1.490       .  S
C1257      H1260   1.083       .  S
C1261      C1262   1.400       .  A
C1261      C1457   1.482       .  S
C1262      H1267   1.084       .  S
C1263      C1264   1.400       .  A
C1263      C1373   1.482       .  S
C1264      C1265   1.401       .  A
C1264      H1268   1.084       .  S
C1265      C1266   1.406       .  A
C1265      C1821   1.487       .  S
C1266      H1269   1.083       .  S
C1270      C1271   1.398       .  A
C1270      C1275   1.398       .  A
C1270      C1498   1.471       .  S
C1271      C1272   1.403       .  A
C1271      H1276   1.084       .  S
C1272      C1273   1.410       .  A
C1272      C1345   1.489       .  S
C1273      C1274   1.408       .  A
C1274      C1275   1.401       .  A
C1275      H1278   1.084       .  S
Zr1279     O1280   2.441       .  S
Zr1279     O1281   2.438       .  S
Zr1279     O1282   2.422   1_554  S
Zr1279     O1285   2.426       .  S
Zr1279     O1287   2.377   1_554  S
Zr1279     O1288   2.377       .  S
Zr1279     O1289   2.409   1_554  S
Zr1279     O1290   2.401       .  S
O1280      H1336   0.991       .  S
O1280      H1344   0.990       .  S
O1281      C1301   1.285       .  A
O1282      C1303   1.282       .  A
O1283     Zr1293   2.422       .  S
O1283      C1302   1.283       .  A
O1284     Zr1292   2.425       .  S
O1284      C1303   1.283       .  A
O1285      C1302   1.284       .  A
O1286     Zr1294   2.424       .  S
O1287     Zr1292   2.391       .  S
O1288     Zr1293   2.386       .  S
O1288      H1323   0.965       .  S
O1289     Zr1292   2.399       .  S
O1289     Zr1309   2.399   1_455  S
O1289      H1326   0.965       .  S
O1290     Zr1293   2.395       .  S
O1290     Zr1309   2.399   1_454  S
Zr1291     O1316   2.440       .  S
Zr1291     O1310   2.430       .  S
Zr1291     O1318   2.431   1_556  S
Zr1291     O1306   2.428       .  S
Zr1291     O1297   2.399   1_656  S
Zr1291     O1298   2.404   1_655  S
Zr1292     O1311   2.437       .  S
Zr1292     O1299   2.384   1_455  S
Zr1293     O1295   2.435       .  S
Zr1293     O1300   2.381   1_455  S
Zr1294     O1320   2.436       .  S
Zr1294     O1321   2.437       .  S
Zr1294     O1296   2.437       .  S
Zr1294     O1297   2.398       .  S
Zr1294     O1298   2.399   1_554  S
O1295      H1332   0.990       .  S
O1296      H1327   0.990       .  S
O1296      H1341   0.990   1_554  S
O1298      H1324   0.966       .  S
O1299     Zr1309   2.369       .  S
O1300     Zr1309   2.369   1_554  S
O1300      H1325   0.967       .  S
C1301      C1358   1.491       .  S
C1302      C1737   1.481       .  S
C1303      C1414   1.474       .  S
O1304      H1340   0.990       .  S
O1305      C1307   1.283   1_455  A
O1306      C1307   1.284       .  A
C1307      C1974   1.470       .  S
O1308     Zr1309   2.439       .  S
O1308      H1337   0.991       .  S
Zr1309     O1312   2.439       .  S
Zr1309     O1313   2.438   1_556  S
Zr1309     O1314   2.430       .  S
O1311      H1328   0.990       .  S
O1311      H1343   0.990       .  S
O1312      H1329   0.990       .  S
O1313      H1333   0.990       .  S
O1313      H1342   0.990       .  S
O1314      C1315   1.283       .  A
C1315      C1386   1.489       .  S
O1316      H1335   0.991   1_656  S
O1316      H1339   0.990   1_655  S
O1317      H1338   0.990       .  S
O1318      C1322   1.286       .  A
O1319      C1322   1.281   1_455  A
O1320      H1330   0.990       .  S
O1321      H1334   0.990       .  S
C1322      C1554   1.490       .  S
C1345      C1346   1.413       .  A
C1345      C1350   1.407       .  A
C1346      C1347   1.407       .  A
C1346      N1351   1.437       .  S
C1347      C1348   1.404       .  A
C1347      H1352   1.083       .  S
C1348      C1349   1.410       .  A
C1348      C1353   1.487       .  S
C1349      C1350   1.405       .  A
C1349      N1354   1.438       .  S
C1350      H1355   1.084       .  S
N1351      H1371   1.046       .  S
N1351      H1372   1.046       .  S
C1353      C1360   1.410       .  A
N1354      H1369   1.046       .  S
N1354      H1370   1.046       .  S
C1356      C1357   1.402       .  A
C1356      H1361   1.084       .  S
C1357      N1362   1.438       .  S
C1358      C1359   1.408       .  A
C1359      C1360   1.407       .  A
C1359      H1363   1.083       .  S
C1360      N1364   1.438       .  S
N1362      H1365   1.046       .  S
N1362      H1366   1.045       .  S
N1364      H1367   1.045       .  S
N1364      H1368   1.046       .  S
C1373      C1378   1.405   1_565  A
C1374      C1375   1.403       .  A
C1374      N1379   1.438       .  S
C1375      H1380   1.084       .  S
C1376      C1377   1.407   1_565  A
C1376      C1381   1.476       .  S
C1377      C1378   1.402       .  A
C1377      N1382   1.438       .  S
C1378      H1383   1.084       .  S
N1379      H1399   1.046       .  S
N1379      H1400   1.046       .  S
C1381      C1384   1.397       .  A
N1382      H1397   1.045       .  S
N1382      H1398   1.046       .  S
C1384      C1385   1.403       .  A
C1384      H1389   1.084       .  S
C1385      C1386   1.419       .  A
C1385      N1390   1.438       .  S
C1387      C1388   1.404       .  A
C1387      H1391   1.084       .  S
C1388      N1392   1.438       .  S
N1390      H1393   1.046       .  S
N1390      H1394   1.046       .  S
N1392      H1395   1.046       .  S
N1392      H1396   1.046       .  S
C1401      C1402   1.413       .  A
C1401      C1406   1.403       .  A
C1402      C1403   1.401       .  A
C1402      N1407   1.438       .  S
C1403      C1404   1.399       .  A
C1403      H1408   1.084       .  S
C1404      C1405   1.408       .  A
C1404      C1409   1.471       .  S
C1405      C1406   1.403       .  A
C1405      N1410   1.438       .  S
C1406      H1411   1.084       .  S
N1407      H1427   1.046       .  S
N1407      H1428   1.046       .  S
C1409      C1412   1.399       .  A
C1409      C1416   1.407       .  A
N1410      H1425   1.046       .  S
N1410      H1426   1.046       .  S
C1412      C1413   1.402       .  A
C1412      H1417   1.084       .  S
C1413      C1414   1.413       .  A
C1413      N1418   1.437       .  S
C1414      C1415   1.404       .  A
C1415      C1416   1.402       .  A
C1415      H1419   1.084       .  S
C1416      N1420   1.438       .  S
N1418      H1421   1.046       .  S
N1418      H1422   1.045       .  S
N1420      H1423   1.045       .  S
N1420      H1424   1.046       .  S
C1429      C1430   1.414       .  A
C1429      C1434   1.404       .  A
C1430      C1431   1.406       .  A
C1430      N1435   1.438       .  S
C1431      C1432   1.406       .  A
C1431      H1436   1.083       .  S
C1432      C1433   1.414       .  A
C1432      C1437   1.493       .  S
C1433      C1434   1.405       .  A
C1433      N1438   1.438       .  S
C1434      H1439   1.084       .  S
N1435      H1455   1.046       .  S
N1435      H1456   1.046       .  S
C1437      C1440   1.404       .  A
C1437      C1444   1.414       .  A
N1438      H1453   1.045       .  S
N1438      H1454   1.046       .  S
C1440      C1441   1.405       .  A
C1440      H1445   1.083       .  S
C1441      C1442   1.415       .  A
C1441      N1446   1.438       .  S
C1442      C1443   1.405       .  A
C1443      C1444   1.405       .  A
C1443      H1447   1.083       .  S
C1444      N1448   1.438       .  S
N1446      H1449   1.046       .  S
N1446      H1450   1.046       .  S
N1448      H1451   1.046       .  S
N1448      H1452   1.045       .  S
C1457      C1458   1.412       .  A
C1457      C1462   1.406       .  A
C1458      C1459   1.403       .  A
C1459      C1460   1.400       .  A
C1459      H1464   1.084       .  S
C1460      C1461   1.408       .  A
C1460      C1465   1.477       .  S
C1461      C1462   1.406       .  A
C1461      N1466   1.437       .  S
C1462      H1467   1.084       .  S
N1463      H1483   1.046       .  S
N1463      H1484   1.046       .  S
C1465      C1468   1.400       .  A
C1465      C1472   1.405       .  A
N1466      H1481   1.046       .  S
N1466      H1482   1.046       .  S
C1468      C1469   1.407       .  A
C1468      H1473   1.084       .  S
C1469      C1470   1.418       .  A
C1469      N1474   1.438       .  S
C1470      C1471   1.407       .  A
C1471      C1472   1.404       .  A
C1471      H1475   1.083       .  S
C1472      N1476   1.438       .  S
N1474      H1477   1.046   1_556  S
N1474      H1478   1.046       .  S
N1476      H1479   1.046       .  S
N1476      H1480   1.046       .  S
C1485      C1486   1.419       .  A
C1485      C1490   1.407       .  A
C1486      C1487   1.403       .  A
C1486      N1491   1.438       .  S
C1487      C1488   1.397       .  A
C1487      H1492   1.084       .  S
C1488      C1489   1.406       .  A
C1488      C1493   1.473       .  S
C1489      C1490   1.404       .  A
C1489      N1494   1.437       .  S
C1490      H1495   1.083       .  S
N1491      H1511   1.046       .  S
N1491      H1512   1.046       .  S
C1493      C1496   1.401       .  A
C1493      C1500   1.408       .  A
N1494      H1509   1.046       .  S
N1494      H1510   1.046       .  S
C1496      C1497   1.404       .  A
C1496      H1501   1.084       .  S
C1497      C1498   1.410       .  A
C1497      N1502   1.438       .  S
C1498      C1499   1.401       .  A
C1499      C1500   1.403       .  A
C1499      H1503   1.084       .  S
C1500      N1504   1.437       .  S
N1502      H1505   1.046       .  S
N1502      H1506   1.045       .  S
N1504      H1507   1.046       .  S
N1504      H1508   1.045       .  S
C1513      C1514   1.410       .  A
C1513      C1518   1.403       .  A
C1514      C1515   1.405       .  A
C1514      N1519   1.438       .  S
C1515      C1516   1.404       .  A
C1515      H1520   1.084       .  S
C1516      C1517   1.410       .  A
C1516      C1521   1.482       .  S
C1517      C1518   1.404       .  A
C1517      N1522   1.438       .  S
C1518      H1523   1.084       .  S
N1519      H1539   1.046       .  S
N1519      H1540   1.046       .  S
C1521      C1524   1.401       .  A
C1521      C1528   1.407       .  A
N1522      H1537   1.046       .  S
N1522      H1538   1.046       .  S
C1524      C1525   1.406       .  A
C1524      H1529   1.084       .  S
C1525      C1526   1.420       .  A
C1525      N1530   1.438       .  S
C1526      C1527   1.410       .  A
C1527      C1528   1.403       .  A
C1527      H1531   1.083       .  S
C1528      N1532   1.438       .  S
N1530      H1533   1.046       .  S
N1530      H1534   1.045       .  S
N1532      H1535   1.046       .  S
N1532      H1536   1.046       .  S
C1541      C1542   1.412       .  A
C1541      C1546   1.405       .  A
C1542      C1543   1.404       .  A
C1542      N1547   1.438       .  S
C1543      C1544   1.401       .  A
C1543      H1548   1.084       .  S
C1544      C1545   1.409       .  A
C1544      C1549   1.478       .  S
C1545      C1546   1.404       .  A
C1545      N1550   1.438       .  S
C1546      H1551   1.084       .  S
N1547      H1567   1.046       .  S
N1547      H1568   1.046       .  S
C1549      C1552   1.398       .  A
C1549      C1556   1.407       .  A
N1550      H1565   1.046       .  S
N1550      H1566   1.046       .  S
C1552      C1553   1.403       .  A
C1552      H1557   1.084       .  S
C1553      C1554   1.422       .  A
C1553      N1558   1.438       .  S
C1554      C1555   1.408       .  A
C1555      C1556   1.404       .  A
C1555      H1559   1.083       .  S
C1556      N1560   1.438       .  S
N1558      H1561   1.046       .  S
N1558      H1562   1.046       .  S
N1560      H1563   1.046       .  S
N1560      H1564   1.046       .  S
C1569      C1570   1.412       .  A
C1569      C1574   1.404       .  A
C1570      C1571   1.405       .  A
C1570      N1575   1.438       .  S
C1571      C1572   1.405       .  A
C1571      H1576   1.083       .  S
C1572      C1573   1.413       .  A
C1572      C1577   1.490       .  S
C1573      C1574   1.405       .  A
C1573      N1578   1.438       .  S
C1574      H1579   1.084       .  S
N1575      H1595   1.046   1_565  S
N1575      H1596   1.046       .  S
C1577      C1580   1.405       .  A
C1577      C1584   1.413       .  A
N1578      H1593   1.046       .  S
N1578      H1594   1.046       .  S
C1580      C1581   1.406       .  A
C1580      H1585   1.083       .  S
C1581      C1582   1.412       .  A
C1581      N1586   1.438       .  S
C1582      C1583   1.404       .  A
C1583      C1584   1.406       .  A
C1583      H1587   1.084       .  S
C1584      N1588   1.438       .  S
N1586      H1589   1.046       .  S
N1586      H1590   1.046       .  S
N1588      H1591   1.046       .  S
N1588      H1592   1.046       .  S
C1597      C1598   1.417       .  A
C1597      C1602   1.403   1_565  A
C1598      C1599   1.400       .  A
C1598      N1603   1.440       .  S
C1599      C1600   1.402       .  A
C1600      C1601   1.409   1_565  A
C1600      C1605   1.479       .  S
C1601      C1602   1.403       .  A
C1601      N1606   1.438       .  S
C1602      H1607   1.084       .  S
N1603      H1623   1.042       .  S
C1605      C1608   1.403       .  A
N1606      H1621   1.046       .  S
N1606      H1622   1.046       .  S
C1608      C1609   1.405       .  A
C1608      H1613   1.084       .  S
C1609      C1610   1.409       .  A
C1609      N1614   1.438       .  S
C1611      C1612   1.404       .  A
C1611      H1615   1.084       .  S
C1612      N1616   1.438       .  S
N1614      H1617   1.046       .  S
N1614      H1618   1.045       .  S
N1616      H1619   1.046       .  S
N1616      H1620   1.046       .  S
C1625      C1626   1.414       .  A
C1625      C1630   1.404       .  A
C1626      C1627   1.407       .  A
C1626      N1631   1.438       .  S
C1627      C1628   1.403       .  A
C1627      H1632   1.084       .  S
C1628      C1629   1.409       .  A
C1628      C1633   1.482       .  S
C1629      C1630   1.402       .  A
C1629      N1634   1.438       .  S
C1630      H1635   1.084       .  S
N1631      H1651   1.046       .  S
N1631      H1652   1.046       .  S
C1633      C1636   1.402       .  A
C1633      C1640   1.409       .  A
N1634      H1649   1.046       .  S
N1634      H1650   1.046       .  S
C1636      C1637   1.405       .  A
C1636      H1641   1.084       .  S
C1637      C1638   1.414       .  A
C1637      N1642   1.438       .  S
C1638      C1639   1.407       .  A
C1639      C1640   1.406       .  A
C1639      H1643   1.084       .  S
C1640      N1644   1.438       .  S
N1642      H1645   1.046       .  S
N1642      H1646   1.046       .  S
N1644      H1647   1.046       .  S
N1644      H1648   1.046       .  S
C1653      C1654   1.423       .  A
C1653      C1658   1.410       .  A
C1654      C1655   1.409       .  A
C1654      N1659   1.437       .  S
C1655      C1656   1.400       .  A
C1655      H1660   1.084       .  S
C1656      C1657   1.406       .  A
C1656      C1661   1.484       .  S
C1657      C1658   1.405       .  A
C1657      N1662   1.438       .  S
C1658      H1663   1.083       .  S
N1659      H1679   1.045       .  S
N1659      H1680   1.046       .  S
C1661      C1664   1.403       .  A
C1661      C1668   1.411       .  A
N1662      H1677   1.045       .  S
N1662      H1678   1.046       .  S
C1664      C1665   1.403       .  A
C1664      H1669   1.084       .  S
C1665      C1666   1.408       .  A
C1665      N1670   1.432       .  S
C1666      C1667   1.403       .  A
C1667      C1668   1.408       .  A
C1667      H1671   1.084       .  S
C1668      N1672   1.437       .  S
N1670      H1673   1.045       .  S
N1670      H1674   1.046       .  S
N1672      H1675   1.046       .  S
N1672      H1676   1.046       .  S
C1681      C1682   1.418       .  A
C1681      C1686   1.408       .  A
C1682      C1683   1.410       .  A
C1683      C1684   1.402       .  A
C1683      H1688   1.084       .  S
C1684      C1685   1.407       .  A
C1684      C1689   1.484       .  S
C1685      C1686   1.402       .  A
C1685      N1690   1.438   1_565  S
C1686      H1691   1.083   1_565  S
N1687      H1707   1.046       .  S
N1687      H1708   1.046       .  S
C1689      C1692   1.402       .  A
C1689      C1696   1.411       .  A
N1690      H1705   1.046       .  S
N1690      H1706   1.045       .  S
C1692      C1693   1.402       .  A
C1693      C1694   1.409       .  A
C1694      C1695   1.405       .  A
C1695      C1696   1.409       .  A
C1695      H1699   1.084       .  S
C1696      N1700   1.437       .  S
N1698      H1701   1.045       .  S
N1698      H1702   1.046       .  S
N1700      H1703   1.046       .  S
N1700      H1704   1.045       .  S
C1709      C1710   1.415       .  A
C1709      C1714   1.407       .  A
C1710      C1711   1.405       .  A
C1710      N1715   1.438       .  S
C1711      C1712   1.404       .  A
C1711      H1716   1.083       .  S
C1712      C1713   1.412       .  A
C1712      C1717   1.488       .  S
C1713      C1714   1.404       .  A
C1713      N1718   1.438       .  S
C1714      H1719   1.084       .  S
N1715      H1735   1.046       .  S
N1715      H1736   1.046       .  S
C1717      C1720   1.405       .  A
C1717      C1724   1.416       .  A
N1718      H1733   1.046       .  S
N1718      H1734   1.045       .  S
C1720      C1721   1.400       .  A
C1720      H1725   1.084       .  S
C1721      C1722   1.403       .  A
C1721      N1726   1.432       .  S
C1722      C1723   1.401       .  A
C1723      C1724   1.407       .  A
C1723      H1727   1.084       .  S
C1724      N1728   1.438       .  S
N1726      H1729   1.046       .  S
N1728      H1731   1.045       .  S
N1728      H1732   1.046       .  S
C1737      C1738   1.414       .  A
C1737      C1742   1.405       .  A
C1738      C1739   1.406       .  A
C1738      N1743   1.438       .  S
C1739      C1740   1.404       .  A
C1739      H1744   1.084       .  S
C1740      C1741   1.409       .  A
C1740      C1745   1.484       .  S
C1741      C1742   1.403       .  A
C1741      N1746   1.438       .  S
C1742      H1747   1.084       .  S
N1743      H1763   1.046       .  S
N1743      H1764   1.046       .  S
C1745      C1748   1.404       .  A
C1745      C1752   1.411       .  A
N1746      H1761   1.046       .  S
N1746      H1762   1.045       .  S
C1748      C1749   1.404       .  A
C1748      H1753   1.084       .  S
C1749      C1750   1.408       .  A
C1749      N1754   1.438       .  S
C1750      C1751   1.402       .  A
C1751      C1752   1.407       .  A
C1751      H1755   1.084       .  S
C1752      N1756   1.437       .  S
N1754      H1757   1.046       .  S
N1754      H1758   1.046       .  S
N1756      H1759   1.046       .  S
N1756      H1760   1.046       .  S
C1765      C1766   1.417       .  A
C1765      C1770   1.407       .  A
C1766      C1767   1.405       .  A
C1766      N1771   1.438       .  S
C1767      C1768   1.402       .  A
C1767      H1772   1.084       .  S
C1768      C1769   1.410       .  A
C1768      C1773   1.486       .  S
C1769      C1770   1.403       .  A
C1769      N1774   1.438       .  S
C1770      H1775   1.083       .  S
N1771      H1791   1.045       .  S
N1771      H1792   1.046       .  S
C1773      C1776   1.404       .  A
C1773      C1780   1.412       .  A
N1774      H1789   1.046       .  S
N1774      H1790   1.045       .  S
C1776      C1777   1.402       .  A
C1776      H1781   1.084       .  S
C1777      C1778   1.409       .  A
C1777      N1782   1.432       .  S
C1778      C1779   1.405       .  A
C1779      C1780   1.405       .  A
C1779      H1783   1.084       .  S
C1780      N1784   1.438       .  S
N1782      H1785   1.045       .  S
N1782      H1786   1.046       .  S
N1784      H1787   1.046       .  S
N1784      H1788   1.045       .  S
C1793      C1794   1.417       .  A
C1793      C1798   1.407       .  A
C1794      C1795   1.405       .  A
C1794      N1799   1.438       .  S
C1795      C1796   1.402       .  A
C1795      H1800   1.084       .  S
C1796      C1797   1.410       .  A
C1796      C1801   1.485       .  S
C1797      C1798   1.403       .  A
C1797      N1802   1.438       .  S
C1798      H1803   1.083       .  S
N1799      H1819   1.046       .  S
N1799      H1820   1.046       .  S
C1801      C1804   1.403       .  A
C1801      C1808   1.413       .  A
N1802      H1817   1.045       .  S
N1802      H1818   1.046       .  S
C1804      C1805   1.401       .  A
C1804      H1809   1.084       .  S
C1805      C1806   1.408       .  A
C1805      N1810   1.432       .  S
C1806      C1807   1.405       .  A
C1807      C1808   1.406       .  A
C1807      H1811   1.084       .  S
C1808      N1812   1.438       .  S
N1810      H1813   1.045       .  S
N1810      H1814   1.046       .  S
N1812      H1815   1.045       .  S
N1812      H1816   1.046       .  S
C1821      C1822   1.413       .  A
C1821      C1826   1.406       .  A
C1822      C1823   1.405       .  A
C1822      N1827   1.438       .  S
C1823      C1824   1.404       .  A
C1823      H1828   1.084       .  S
C1824      C1825   1.410       .  A
C1824      C1829   1.486       .  S
C1825      C1826   1.404       .  A
C1825      N1830   1.438       .  S
C1826      H1831   1.084       .  S
N1827      H1847   1.046       .  S
N1827      H1848   1.046       .  S
C1829      C1832   1.404       .  A
C1829      C1836   1.410       .  A
N1830      H1845   1.046       .  S
N1830      H1846   1.046       .  S
C1832      C1833   1.407       .  A
C1832      H1837   1.084       .  S
C1833      C1834   1.413       .  A
C1833      N1838   1.437       .  S
C1834      C1835   1.404       .  A
C1835      C1836   1.403       .  A
C1835      H1839   1.084       .  S
C1836      N1840   1.438       .  S
N1838      H1841   1.046       .  S
N1838      H1842   1.046       .  S
N1840      H1843   1.046       .  S
N1840      H1844   1.046       .  S
C1849      C1850   1.406       .  A
C1849      C1854   1.401       .  A
C1850      C1851   1.402       .  A
C1850      N1855   1.433       .  S
C1851      C1852   1.406       .  A
C1851      H1856   1.084       .  S
C1852      C1853   1.414       .  A
C1852      C1857   1.491       .  S
C1853      C1854   1.406       .  A
C1853      N1858   1.437       .  S
C1854      H1859   1.084       .  S
N1855      H1876   1.045       .  S
C1857      C1860   1.404       .  A
C1857      C1864   1.412       .  A
N1858      H1873   1.046       .  S
N1858      H1874   1.046       .  S
C1860      C1861   1.406       .  A
C1860      H1865   1.083       .  S
C1861      C1862   1.413       .  A
C1861      N1866   1.438       .  S
C1862      C1863   1.406       .  A
C1863      C1864   1.409       .  A
C1863      H1867   1.084       .  S
C1864      N1868   1.438       .  S
N1866      H1869   1.046       .  S
N1866      H1870   1.046       .  S
N1868      H1871   1.046       .  S
N1868      H1872   1.046       .  S
C1877      C1878   1.414       .  A
C1877      C1882   1.405       .  A
C1878      C1879   1.403       .  A
C1878      N1883   1.438       .  S
C1879      C1880   1.399       .  A
C1879      H1884   1.084       .  S
C1880      C1881   1.407       .  A
C1880      C1885   1.472       .  S
C1881      C1882   1.404       .  A
C1881      N1886   1.438       .  S
C1882      H1887   1.084       .  S
N1883      H1903   1.046       .  S
N1883      H1904   1.046       .  S
C1885      C1888   1.397       .  A
C1885      C1892   1.405       .  A
N1886      H1901   1.046       .  S
N1886      H1902   1.045       .  S
C1888      C1889   1.404       .  A
C1888      H1893   1.084       .  S
C1889      C1890   1.419       .  A
C1889      N1894   1.438       .  S
C1890      C1891   1.408       .  A
C1891      C1892   1.403       .  A
C1891      H1895   1.084       .  S
C1892      N1896   1.438       .  S
N1894      H1897   1.046       .  S
N1894      H1898   1.046       .  S
N1896      H1899   1.046       .  S
N1896      H1900   1.046       .  S
C1905      C1906   1.415       .  A
C1905      C1910   1.407       .  A
C1906      C1907   1.404       .  A
C1906      N1911   1.438       .  S
C1907      C1908   1.399       .  A
C1907      H1912   1.084       .  S
C1908      C1909   1.406       .  A
C1908      C1913   1.474       .  S
C1909      C1910   1.403       .  A
C1909      N1914   1.438       .  S
C1910      H1915   1.084       .  S
N1911      H1931   1.046       .  S
N1911      H1932   1.046       .  S
C1913      C1916   1.400       .  A
C1913      C1920   1.408       .  A
N1914      H1929   1.046       .  S
N1914      H1930   1.045       .  S
C1916      C1917   1.404       .  A
C1916      H1921   1.084       .  S
C1917      C1918   1.412       .  A
C1917      N1922   1.438       .  S
C1918      C1919   1.402       .  A
C1919      C1920   1.404       .  A
C1919      H1923   1.084       .  S
C1920      N1924   1.437       .  S
N1922      H1925   1.045   1_565  S
N1922      H1926   1.045   1_565  S
N1924      H1927   1.046       .  S
N1924      H1928   1.045       .  S
C1933      C1934   1.412       .  A
C1933      C1938   1.403       .  A
C1934      C1935   1.404       .  A
C1934      N1939   1.438       .  S
C1935      C1936   1.402       .  A
C1935      H1940   1.084       .  S
C1936      C1937   1.408       .  A
C1936      C1941   1.477       .  S
C1937      C1938   1.403       .  A
C1937      N1942   1.438       .  S
C1938      H1943   1.084       .  S
N1939      H1959   1.046       .  S
N1939      H1960   1.046       .  S
C1941      C1944   1.401       .  A
C1941      C1948   1.408       .  A
N1942      H1957   1.046       .  S
N1942      H1958   1.046       .  S
C1944      C1945   1.403       .  A
C1944      H1949   1.084       .  S
C1945      C1946   1.413       .  A
C1945      N1950   1.438       .  S
C1946      C1947   1.404       .  A
C1947      C1948   1.403       .  A
C1947      H1951   1.084       .  S
C1948      N1952   1.438       .  S
N1950      H1953   1.046       .  S
N1950      H1954   1.046       .  S
N1952      H1955   1.046       .  S
N1952      H1956   1.046       .  S
C1961      C1962   1.413       .  A
C1961      C1966   1.405       .  A
C1962      C1963   1.403       .  A
C1962      N1967   1.438       .  S
C1963      C1964   1.403       .  A
C1963      H1968   1.084       .  S
C1964      C1965   1.410       .  A
C1964      C1969   1.484       .  S
C1965      C1966   1.404       .  A
C1965      N1970   1.438       .  S
C1966      H1971   1.084       .  S
N1967      H1987   1.046       .  S
N1967      H1988   1.046       .  S
C1969      C1972   1.405       .  A
C1969      C1976   1.412       .  A
N1970      H1985   1.046       .  S
N1970      H1986   1.046       .  S
C1972      C1973   1.404       .  A
C1972      H1977   1.084       .  S
C1973      C1974   1.409       .  A
C1973      N1978   1.438       .  S
C1974      C1975   1.402       .  A
C1975      C1976   1.402       .  A
C1975      H1979   1.084       .  S
C1976      N1980   1.438       .  S
N1978      H1981   1.046       .  S
N1978      H1982   1.046   1_655  S
N1980      H1983   1.046       .  S
N1980      H1984   1.046       .  S
C1989      C1990   1.413       .  A
C1989      C1994   1.405       .  A
C1990      C1991   1.401       .  A
C1990      N1995   1.438       .  S
C1991      C1992   1.401       .  A
C1991      H1996   1.084       .  S
C1992      C1993   1.409       .  A
C1992      C1997   1.479       .  S
C1993      C1994   1.404       .  A
C1993      N1998   1.438       .  S
C1994      H1999   1.084       .  S
N1995      H2015   1.045       .  S
N1995      H2016   1.046       .  S
C1997      C2000   1.402       .  A
C1997      C2004   1.410       .  A
N1998      H2013   1.046       .  S
N1998      H2014   1.046       .  S
C2000      C2001   1.403       .  A
C2000      H2005   1.084       .  S
C2001      C2002   1.411       .  A
C2001      N2006   1.438       .  S
C2002      C2003   1.404       .  A
C2003      C2004   1.402       .  A
C2003      H2007   1.084       .  S
C2004      N2008   1.438       .  S
N2006      H2009   1.046       .  S
N2006      H2010   1.046       .  S
N2008      H2011   1.046       .  S
N2008      H2012   1.046       .  S
