geometry optimzed in LAMMPS
_audit_creation_date              2020-11-30 
_audit_creation_method            'lammps2cif' 
_symmetry_space_group_name_H-M    'P1' 
_symmetry_Int_Tables_number       1 
_symmetry_cell_setting            triclinic 
loop_ 
_symmetry_equiv_pos_as_xyz 
  x,y,z 
_cell_length_a                    51.853438349020664 
_cell_length_b                    50.48462546765216 
_cell_length_c                    50.40820568961589 
_cell_angle_alpha                 89.91918295887332 
_cell_angle_beta                  90.13935464657052 
_cell_angle_gamma                 89.85712627609773 
loop_ 
_atom_site_label 
_atom_site_type_symbol 
_atom_site_fract_x 
_atom_site_fract_y 
_atom_site_fract_z 
_atom_site_charge 
C1          C  0.16275608  0.16548787  0.48769579     0.00810
C2          C  0.16125951  0.16800522  0.51545438     0.00810
C3          C  0.18977363  0.52248435  0.15450410     0.00810
C4          C  0.16920394  0.52455660  0.17239012     0.00810
C5          C  0.52959244  0.17445691  0.15019562     0.00810
C6          C  0.50277377  0.17752612  0.15186231     0.00810
C7          C  0.20079474  0.83310934  0.50655508     0.00810
C8          C  0.20031861  0.83515880  0.47888151     0.00810
C9          C  0.85421199  0.18316609  0.48656644     0.00810
C10         C  0.85105975  0.18244619  0.51411122     0.00810
C11         C  0.86180861  0.86566362  0.51693021     0.00810
C12         C  0.85677084  0.86375691  0.48975946     0.00810
C13         C  0.52435455  0.17503188  0.84204231     0.00490
C14         C  0.49765939  0.17592898  0.84389316     0.00810
C15         C  0.15611724  0.51922342  0.84389114     0.00810
C16         C  0.17516973  0.51927280  0.86426744     0.00810
C17         C  0.50972162  0.87249093  0.15604779     0.00810
C18         C  0.53571566  0.86505542  0.15724952     0.00810
C19         C  0.85839413  0.50180485  0.15294688     0.00810
C20         C  0.85594372  0.52836935  0.16024131     0.00810
C21         C  0.85200371  0.53797532  0.83491543     0.00810
C22         C  0.85622373  0.51065459  0.83494146     0.00810
C23         C  0.50413378  0.86267466  0.84103537     0.00810
C24         C  0.53095445  0.85974486  0.84498274     0.00810
C25         C  0.60010242  0.73778036  0.92799745     0.03370
C26         C  0.58346377  0.76074780  0.92756390    -0.12780
C27         C  0.57214237  0.76951980  0.90291791     0.00870
C28         C  0.57801704  0.75458850  0.88021903    -0.11300
C29         C  0.59331169  0.73217586  0.88088037     0.03370
C30         C  0.60396515  0.72368855  0.90449742    -0.10720
H31         H  0.58010331  0.77146667  0.94573184     0.08960
H32         H  0.57272965  0.76187679  0.86069558     0.06490
H33         H  0.61761987  0.70735007  0.90397368     0.06340
C34         C  0.76373288  0.58587324  0.89059474     0.03370
C35         C  0.74783316  0.59579040  0.87026027    -0.12780
C36         C  0.72594148  0.61055354  0.87614052     0.00870
C37         C  0.71549544  0.60866967  0.90127458    -0.11300
C38         C  0.73232987  0.60488851  0.92254999     0.03370
C39         C  0.75673804  0.59238478  0.91746404    -0.10720
H40         H  0.75485797  0.59608213  0.85000170     0.08960
H41         H  0.69751912  0.61914164  0.90494723     0.06490
H42         H  0.76965395  0.58833655  0.93378384     0.06340
C43         C  0.94362484  0.63157300  0.73961413     0.03370
C44         C  0.93652662  0.60666631  0.75119924    -0.12780
C45         C  0.91573401  0.60574079  0.76979339     0.00870
C46         C  0.90315615  0.62914236  0.77634592    -0.11300
C47         C  0.90949954  0.65296842  0.76442450     0.03370
C48         C  0.93050814  0.65447668  0.74761422    -0.10720
H49         H  0.94625224  0.58862028  0.74532853     0.08960
H50         H  0.88649206  0.62837413  0.78935044     0.06490
H51         H  0.93570883  0.67354774  0.73936310     0.06340
C52         C  0.92663132  0.80338110  0.58523653     0.03370
C53         C  0.90783871  0.80545113  0.60496481    -0.12780
C54         C  0.90842067  0.78911245  0.62701885     0.00870
C55         C  0.92831816  0.77114050  0.63061823    -0.11300
C56         C  0.94891564  0.76967012  0.61283151     0.03370
C57         C  0.94762108  0.78520450  0.58902939    -0.10720
H58         H  0.89128514  0.81836381  0.60202750     0.08960
H59         H  0.92756336  0.75787263  0.64755114     0.06490
H60         H  0.96234754  0.78318428  0.57399022     0.06340
C61         C  0.78144366  0.91008071  0.58335728     0.03370
C62         C  0.76704084  0.88714124  0.58816322    -0.12780
C63         C  0.74400823  0.88799272  0.60222658     0.00870
C64         C  0.73344710  0.91206903  0.60968747    -0.11300
C65         C  0.74565978  0.93605311  0.60357401     0.03370
C66         C  0.77038118  0.93505723  0.59077600    -0.10720
H67         H  0.77454511  0.86799686  0.58222330     0.08960
H68         H  0.71589714  0.91196498  0.62130468     0.06490
H69         H  0.78089645  0.95317950  0.58710808     0.06340
C70         C  0.61122871  0.94244856  0.72970675     0.03370
C71         C  0.60011948  0.94034185  0.75575075    -0.12780
C72         C  0.58621759  0.91688596  0.76322468     0.00870
C73         C  0.58481548  0.89622760  0.74461112    -0.11300
C74         C  0.59859103  0.89711145  0.72098998     0.03370
C75         C  0.60951681  0.92071149  0.71260530    -0.10720
H76         H  0.60351870  0.95580670  0.77015179     0.08960
H77         H  0.57661089  0.87735743  0.75048072     0.06490
H78         H  0.62038843  0.92075994  0.69422290     0.06340
O79         O  0.71777480  0.71636331  0.76510960    -0.88100
C80         C  0.69066246  0.79027510  0.75125791     0.87930
Mg81       Mg  0.75663944  0.70995510  0.77769208     1.58150
O82         O  0.69292912  0.74715528  0.69759592    -0.87830
O83         O  0.68600351  0.70327527  0.73928865    -0.75160
C84         C  0.81676128  0.77551721  0.68728994     0.92980
O85         O  0.73327766  0.77137372  0.79620293    -0.74970
O86         O  0.81877324  0.77013793  0.71173369    -0.82480
Mg87       Mg  0.69791488  0.74547771  0.78791279     1.57960
C88         C  0.72698052  0.78217062  0.63450886     0.92900
O89         O  0.66377685  0.71940265  0.78292443    -0.80740
H90         H  0.68528390  0.71261212  0.67984824    -0.06090
C91         C  0.74848452  0.80055028  0.71086194     0.87840
O92         O  0.76752621  0.69733862  0.73554661    -0.75250
O93         O  0.68994330  0.76580516  0.75196466    -0.88020
O94         O  0.70752364  0.77265015  0.64608426    -0.80830
C95         C  0.64257423  0.79630945  0.69637041     0.93020
C96         C  0.64176825  0.72963165  0.78141694     0.92870
Mg97       Mg  0.75871257  0.75131270  0.67677691     1.57950
O98         O  0.79549765  0.77494499  0.67487209    -0.80750
O99         O  0.72213869  0.72533749  0.67508262    -0.74990
O100        O  0.64356962  0.78031383  0.71579485    -0.80830
O101        O  0.70501523  0.72264773  0.82383328    -0.82540
O102        O  0.81364547  0.72920015  0.75640625    -0.80860
C103        C  0.69932059  0.72786406  0.68397713     0.87310
O104        O  0.76909666  0.73483296  0.71428229    -0.88000
O105        O  0.73907356  0.78192922  0.69816424    -0.88110
O106        O  0.76590436  0.79710951  0.72815846    -0.75160
Mg107      Mg  0.66472695  0.74248696  0.72721334     1.57970
O108        O  0.65794923  0.79429286  0.67696504    -0.82540
H109        H  0.71229592  0.67817045  0.75594564    -0.06260
O110        O  0.76122896  0.75180191  0.77069056    -0.87810
H111        H  0.77085433  0.78246293  0.79382335    -0.06090
H112        H  0.77777464  0.70040235  0.69683033    -0.06270
C113        C  0.75599811  0.76896439  0.78727269     0.87280
C114        C  0.70587167  0.69842728  0.75358937     0.87870
C115        C  0.77195523  0.71058034  0.71470484     0.87920
H116        H  0.74074266  0.82023162  0.70810532    -0.06240
O117        O  0.69389838  0.80254594  0.72954945    -0.75270
Mg118      Mg  0.78856720  0.76127554  0.74170714     1.58000
H119        H  0.68869458  0.80151813  0.76935563    -0.06260
C120        C  0.72577601  0.71294657  0.83251449     0.92900
O121        O  0.79887428  0.70334974  0.78864341    -0.82500
C122        C  0.81689163  0.71100924  0.77337634     0.92960
O123        O  0.63432173  0.73958163  0.75976357    -0.82490
Mg124      Mg  0.69998582  0.78734012  0.68727503     1.58180
O125        O  0.74722449  0.71786263  0.82136254    -0.80820
O126        O  0.74873593  0.77106453  0.63740951    -0.82510
C127        C  0.68005483  0.68125361  0.01644306     0.00810
C128        C  0.67669763  0.67952325  0.98913493     0.00810
C129        C  0.68914078  0.00593030  0.67401717     0.00810
C130        C  0.68761094  0.03345578  0.67640935     0.00810
C131        C  0.03365204  0.67764535  0.65661056     0.00810
C132        C  0.00765671  0.68296017  0.66050517     0.00810
C133        C  0.77438905  0.44097793  0.88195160     0.03370
C134        C  0.76984117  0.41941684  0.86447962    -0.12780
C135        C  0.75853646  0.39626776  0.87362961     0.00870
C136        C  0.74208146  0.39763444  0.89504000    -0.11300
C137        C  0.73933495  0.42075810  0.90956189     0.03370
C138        C  0.75733529  0.44186098  0.90474622    -0.10720
H139        H  0.77839058  0.41813562  0.84503869     0.08960
H140        H  0.73367605  0.37956477  0.90279049     0.06490
H141        H  0.75779655  0.45749319  0.91905891     0.06340
C142        C  0.58198638  0.26153817  0.89128495     0.03370
C143        C  0.60536052  0.25940932  0.87801449    -0.12780
C144        C  0.62463530  0.27767276  0.88159116     0.00870
C145        C  0.62147475  0.29889623  0.89838790    -0.11300
C146        C  0.60152663  0.29869278  0.91679728     0.03370
C147        C  0.58049337  0.28031034  0.91281575    -0.10720
H148        H  0.60910623  0.24263959  0.86508951     0.08960
H149        H  0.63770022  0.31221943  0.90116822     0.06490
H150        H  0.56418725  0.28018110  0.92616205     0.06340
C151        C  0.94763045  0.43109827  0.73070126     0.03370
C152        C  0.94384015  0.45563440  0.74462987    -0.12780
C153        C  0.92749936  0.45606711  0.76766608     0.00870
C154        C  0.91754684  0.43220107  0.77690483    -0.11300
C155        C  0.92175592  0.40885516  0.76360410     0.03370
C156        C  0.93487591  0.40863649  0.73987317    -0.10720
H157        H  0.95317678  0.47354228  0.73787082     0.08960
H158        H  0.90544625  0.43169227  0.79436431     0.06490
H159        H  0.93682534  0.38998566  0.72936488     0.06340
C160        C  0.91499734  0.25360109  0.57657816     0.03370
C161        C  0.90603170  0.24668175  0.60168342    -0.12780
C162        C  0.91520565  0.25918461  0.62402087     0.00870
C163        C  0.93548946  0.27648154  0.62261640    -0.11300
C164        C  0.94545860  0.28485673  0.59839890     0.03370
C165        C  0.93504640  0.27331552  0.57452643    -0.10720
H166        H  0.89032808  0.23265032  0.60380350     0.08960
H167        H  0.94250998  0.28490773  0.64105962     0.06490
H168        H  0.94199105  0.27952850  0.55528481     0.06340
C169        C  0.76657991  0.13213820  0.57086505     0.03370
C170        C  0.75825306  0.10747085  0.58240216    -0.12780
C171        C  0.74054658  0.10750220  0.60437213     0.00870
C172        C  0.73313480  0.13210563  0.61487727    -0.11300
C173        C  0.74356246  0.15558872  0.60555665     0.03370
C174        C  0.75673984  0.15568423  0.58181089    -0.10720
H175        H  0.76581494  0.08894802  0.57508807     0.08960
H176        H  0.72147499  0.13286023  0.63269601     0.06490
H177        H  0.76276052  0.17479566  0.57431589     0.06340
C178        C  0.61874450  0.08674431  0.74968194     0.03370
C179        C  0.59277978  0.09081457  0.75839174    -0.12780
C180        C  0.58816065  0.10671963  0.78144007     0.00870
C181        C  0.60904393  0.11762612  0.79499331    -0.11300
C182        C  0.63387100  0.11385275  0.78618563     0.03370
C183        C  0.63862784  0.09930684  0.76347220    -0.10720
H184        H  0.57684770  0.08186192  0.74783361     0.08960
H185        H  0.60589133  0.13044322  0.81198042     0.06490
H186        H  0.65836635  0.09752496  0.75650172     0.06340
O187        O  0.77804079  0.21937580  0.82794651    -0.88100
C188        C  0.74183442  0.24808673  0.76301175     0.87930
Mg189      Mg  0.78693223  0.24584398  0.86099001     1.58150
O190        O  0.80170050  0.21659159  0.75316464    -0.87830
O191        O  0.78604559  0.18504834  0.80263777    -0.75160
C192        C  0.86376136  0.32083908  0.79835401     0.92980
O193        O  0.74387707  0.27078166  0.81711355    -0.74970
O194        O  0.85296297  0.32136391  0.82088928    -0.82480
Mg195      Mg  0.73989366  0.22553198  0.81494538     1.57960
C196        C  0.85728879  0.25179040  0.71765116     0.92900
O197        O  0.73479108  0.18176427  0.81235403    -0.80740
H198        H  0.82264947  0.18361723  0.75738421    -0.06090
C199        C  0.80615363  0.29686119  0.76429975     0.87840
O200        O  0.82990823  0.23748616  0.85338821    -0.75250
O201        O  0.75174665  0.22984465  0.77571274    -0.88020
O202        O  0.83361216  0.24779096  0.71347035    -0.80830
C203        C  0.76058786  0.21580802  0.69789844     0.93020
C204        C  0.72360739  0.17164498  0.79265982     0.92870
Mg205      Mg  0.84921816  0.25951346  0.77927233     1.57950
O206        O  0.86235761  0.30110911  0.78305789    -0.80750
O207        O  0.83946222  0.21623258  0.77296324    -0.74990
O208        O  0.75284428  0.20290247  0.71814740    -0.80830
O209        O  0.72727024  0.22013208  0.85611958    -0.82540
O210        O  0.82681232  0.28930119  0.86895338    -0.80860
C211        C  0.82150611  0.20479859  0.76029215     0.87310
O212        O  0.83389170  0.26083326  0.81725356    -0.88000
O213        O  0.81246196  0.27332375  0.76465815    -0.88110
O214        O  0.80552796  0.31035504  0.78536319    -0.75160
Mg215      Mg  0.76853227  0.19529345  0.76066738     1.57970
O216        O  0.77764307  0.23365792  0.69928125    -0.82540
H217        H  0.79787017  0.18787898  0.84115949    -0.06260
O218        O  0.78350714  0.27617052  0.83102086    -0.87810
H219        H  0.76124476  0.30662221  0.81998990    -0.06090
H220        H  0.86362378  0.24082111  0.83308900    -0.06270
C221        C  0.76296192  0.28547730  0.82264735     0.87280
C222        C  0.78792584  0.19725928  0.82477135     0.87870
C223        C  0.84348135  0.24623013  0.83436477     0.87920
H224        H  0.80049196  0.30593732  0.74572924    -0.06240
O225        O  0.75519712  0.26178974  0.74726390    -0.75270
Mg226      Mg  0.81704673  0.29852585  0.82713106     1.58000
H227        H  0.72188704  0.25330757  0.76646598    -0.06260
C228        C  0.72616809  0.24190782  0.86787700     0.92900
O229        O  0.79532484  0.27651407  0.89369183    -0.82500
C230        C  0.80808004  0.29533349  0.88368500     0.92960
O231        O  0.73214027  0.17422054  0.76933675    -0.82490
Mg232      Mg  0.79588292  0.25359278  0.73271156     1.58180
O233        O  0.74589396  0.25604720  0.87052520    -0.80820
O234        O  0.86656467  0.25845581  0.73980511    -0.82510
C235        C  0.43240623  0.79156231  0.89872629     0.03370
C236        C  0.40824346  0.80378574  0.89654322    -0.12780
C237        C  0.38568547  0.79014429  0.90259830     0.00870
C238        C  0.38672103  0.76511559  0.91393351    -0.11300
C239        C  0.41023011  0.75197846  0.91762417     0.03370
C240        C  0.43353280  0.76535963  0.90984996    -0.10720
H241        H  0.40669326  0.82305626  0.88709009     0.08960
H242        H  0.36878689  0.75547921  0.91919477     0.06490
H243        H  0.45193383  0.75540190  0.91189057     0.06340
C244        C  0.23527910  0.59734363  0.91021965     0.03370
C245        C  0.23654799  0.61716617  0.89052165    -0.12780
C246        C  0.25502027  0.63728577  0.89169795     0.00870
C247        C  0.27608754  0.63404043  0.90830455    -0.11300
C248        C  0.27561274  0.61593396  0.92901696     0.03370
C249        C  0.25510322  0.59708228  0.93015042    -0.10720
H250        H  0.22190697  0.61849393  0.87533668     0.08960
H251        H  0.29045139  0.64951970  0.90918697     0.06490
H252        H  0.25384616  0.58369500  0.94687108     0.06340
C253        C  0.42662350  0.94648483  0.72695779     0.03370
C254        C  0.44696954  0.94655787  0.74634489    -0.12780
C255        C  0.45314966  0.92253368  0.76019449     0.00870
C256        C  0.43802924  0.90032676  0.75579053    -0.11300
C257        C  0.41747071  0.90085297  0.73841132     0.03370
C258        C  0.41307835  0.92287674  0.72253164    -0.10720
H259        H  0.45738343  0.96460140  0.75062809     0.08960
H260        H  0.44120799  0.88264771  0.76762439     0.06490
H261        H  0.39697248  0.92260546  0.70876138     0.06340
C262        C  0.27621368  0.89270780  0.57343792     0.03370
C263        C  0.28997369  0.87310675  0.58740235    -0.12780
C264        C  0.29383025  0.87714001  0.61417118     0.00870
C265        C  0.29554518  0.90269262  0.62368989    -0.11300
C266        C  0.29792668  0.92319618  0.60520376     0.03370
C267        C  0.28389575  0.91945643  0.58056231    -0.10720
H268        H  0.29178628  0.85308307  0.57988333     0.08960
H269        H  0.29940144  0.90587447  0.64457908     0.06490
H270        H  0.28001253  0.93623363  0.56794690     0.06340
C271        C  0.09753273  0.62016293  0.73472686     0.03370
C272        C  0.09357214  0.60369801  0.75785855    -0.12780
C273        C  0.11555100  0.59301629  0.77193809     0.00870
C274        C  0.14011001  0.59849161  0.76163716    -0.11300
C275        C  0.14320873  0.61963807  0.74454005     0.03370
C276        C  0.12304121  0.62555611  0.72724783    -0.10720
H277        H  0.07428999  0.60046851  0.76532117     0.08960
H278        H  0.15714287  0.59185550  0.77223886     0.06490
H279        H  0.12671277  0.63943277  0.71127874     0.06340
C280        C  0.13817650  0.76816631  0.57530789     0.03370
C281        C  0.11262780  0.76078594  0.58214933    -0.12780
C282        C  0.10844128  0.74508617  0.60512546     0.00870
C283        C  0.12950116  0.73819055  0.62110624    -0.11300
C284        C  0.15490206  0.74338086  0.61321174     0.03370
C285        C  0.15878308  0.75711457  0.58955442    -0.10720
H286        H  0.09650912  0.76707519  0.56997449     0.08960
H287        H  0.12595045  0.72739552  0.63934645     0.06490
H288        H  0.17795638  0.75959400  0.58192963     0.06340
O289        O  0.22475419  0.76145963  0.74676293    -0.88100
C290        C  0.25071643  0.72259080  0.81041524     0.87930
Mg291      Mg  0.25003742  0.76517800  0.71412091     1.58150
O292        O  0.23444482  0.78918764  0.82054944    -0.87830
O293        O  0.19673944  0.78009493  0.77382120    -0.75160
C294        C  0.34581220  0.82185843  0.76782683     0.92980
O295        O  0.26535633  0.71071742  0.74892509    -0.74970
O296        O  0.34082907  0.80476494  0.75042532    -0.82480
Mg297      Mg  0.22328919  0.72135320  0.75910200     1.57960
C298        C  0.29251806  0.83015121  0.85608389     0.92900
O299        O  0.18356860  0.73099840  0.76899379    -0.80740
H300        H  0.20913577  0.81908179  0.81858987    -0.06090
C301        C  0.30839209  0.76858556  0.80967098     0.87840
O302        O  0.25531224  0.80905254  0.72470671    -0.75250
O303        O  0.23519215  0.73561505  0.79709667    -0.88020
O304        O  0.27086171  0.81875477  0.85864925    -0.80830
C305        C  0.22893037  0.74409563  0.87447990     0.93020
C306        C  0.17570896  0.71721399  0.78787782     0.92870
Mg307      Mg  0.28806741  0.82493488  0.79591791     1.57950
O308        O  0.33075823  0.82684913  0.78703932    -0.80750
O309        O  0.24485929  0.82811093  0.80498694    -0.74990
O310        O  0.21528636  0.74069783  0.85387061    -0.80830
O311        O  0.20850240  0.70873093  0.71877379    -0.82540
O312        O  0.30520165  0.79352618  0.70502891    -0.80860
C313        C  0.22866118  0.81234562  0.81522628     0.87310
O314        O  0.28096270  0.80630968  0.75890903    -0.88000
O315        O  0.29105386  0.78528835  0.81204815    -0.88110
O316        O  0.31686779  0.76147186  0.78723400    -0.75160
Mg317      Mg  0.20576445  0.76025206  0.81503583     1.57970
O318        O  0.24160867  0.76523207  0.87819274    -0.82540
H319        H  0.19969367  0.78926069  0.73452463    -0.06260
O320        O  0.27888663  0.75057163  0.74050242    -0.87810
H321        H  0.30232150  0.71900401  0.73831536    -0.06090
H322        H  0.26899148  0.84117369  0.74439516    -0.06270
C323        C  0.28321915  0.72657031  0.74239908     0.87280
C324        C  0.20695011  0.77747586  0.75084999     0.87870
C325        C  0.26862865  0.81982428  0.74283059     0.87920
H326        H  0.31554875  0.75874274  0.82727506    -0.06240
O327        O  0.26436933  0.73349653  0.82827547    -0.75270
Mg328      Mg  0.30914536  0.77708508  0.74588550     1.58000
H329        H  0.25278942  0.70159936  0.80675595    -0.06260
C330        C  0.22144967  0.71416855  0.69829874     0.92900
O331        O  0.27794793  0.77013813  0.68081403    -0.82500
C332        C  0.29425101  0.78863131  0.68319995     0.92960
O333        O  0.17655664  0.72669981  0.81095042    -0.82490
Mg334      Mg  0.26688094  0.77650379  0.84398118     1.58180
O335        O  0.24420365  0.72266734  0.70098932    -0.80820
O336        O  0.29632580  0.84453339  0.83584238    -0.82510
C337        C  0.34717270  0.03148476  0.66344247     0.00810
C338        C  0.35566543  0.00535014  0.66100554     0.00810
C339        C  0.44407483  0.25512824  0.90436090     0.03370
C340        C  0.42736209  0.26162286  0.88351945    -0.12780
C341        C  0.41327801  0.28477432  0.88450253     0.00870
C342        C  0.41392319  0.30076007  0.90655017    -0.11300
C343        C  0.42747366  0.29339476  0.92913988     0.03370
C344        C  0.44365177  0.27053491  0.92811529    -0.10720
H345        H  0.42643777  0.24943059  0.86582228     0.08960
H346        H  0.40138930  0.31804233  0.90692610     0.06490
H347        H  0.45541717  0.26498882  0.94499653     0.06340
C348        C  0.29862303  0.42698273  0.90976941     0.03370
C349        C  0.27448182  0.44095576  0.90959503    -0.12780
C350        C  0.26467832  0.45192663  0.88534176     0.00870
C351        C  0.27903701  0.44859575  0.86227148    -0.11300
C352        C  0.30197696  0.43449639  0.86210054     0.03370
C353        C  0.31214539  0.42446896  0.88569599    -0.10720
H354        H  0.26353819  0.44293206  0.92771271     0.08960
H355        H  0.27121373  0.45554412  0.84348429     0.06490
H356        H  0.32964665  0.41269428  0.88490465     0.06340
C357        C  0.24161862  0.12803592  0.58973656     0.03370
C358        C  0.25533007  0.10319223  0.59089981    -0.12780
C359        C  0.27630189  0.09987826  0.60927017     0.00870
C360        C  0.28104816  0.11976902  0.62769786    -0.11300
C361        C  0.26802032  0.14353825  0.62665208     0.03370
C362        C  0.25108772  0.14861669  0.60579413    -0.10720
H363        H  0.24997994  0.08692183  0.57812142     0.08960
H364        H  0.29478655  0.11652065  0.64366767     0.06490
H365        H  0.24327424  0.16831926  0.60407120     0.06340
C366        C  0.39958364  0.09509253  0.74570146     0.03370
C367        C  0.42466165  0.09636816  0.75807705    -0.12780
C368        C  0.42913538  0.11483765  0.77920984     0.00870
C369        C  0.40826709  0.12927903  0.78903703    -0.11300
C370        C  0.38597831  0.13145217  0.77434127     0.03370
C371        C  0.38168670  0.11476218  0.75312295    -0.10720
H372        H  0.44033128  0.08392603  0.75171951     0.08960
H373        H  0.41111885  0.14296640  0.80539964     0.06490
H374        H  0.36386317  0.11749025  0.74218459     0.06340
C375        C  0.11393082  0.25738088  0.56828203     0.03370
C376        C  0.13736883  0.26810978  0.57668707    -0.12780
C377        C  0.13834503  0.29092948  0.59179301     0.00870
C378        C  0.11574075  0.30345241  0.59949287    -0.11300
C379        C  0.09172500  0.29219274  0.59404208     0.03370
C380        C  0.09051333  0.26905797  0.57766848    -0.10720
H381        H  0.15531804  0.25809321  0.57188690     0.08960
H382        H  0.11701110  0.32055423  0.61246509     0.06490
H383        H  0.07209210  0.26031240  0.57271935     0.06340
C384        C  0.09645201  0.42113322  0.72932519     0.03370
C385        C  0.09836736  0.43625481  0.75330462    -0.12780
C386        C  0.12331787  0.44258006  0.76388582     0.00870
C387        C  0.14513205  0.43264956  0.75097633    -0.11300
C388        C  0.14304638  0.41889967  0.72725120     0.03370
C389        C  0.11906325  0.41399006  0.71618357    -0.10720
H390        H  0.08108452  0.44328576  0.76302814     0.08960
H391        H  0.16419541  0.43666940  0.75893164     0.06490
H392        H  0.11796492  0.40366003  0.69735614     0.06340
O393        O  0.24500260  0.29028727  0.71579789    -0.88100
C394        C  0.31246880  0.25042521  0.72239336     0.87930
Mg395      Mg  0.24168777  0.32628226  0.69339916     1.58150
O396        O  0.28221138  0.27767078  0.77826411    -0.87830
O397        O  0.23201369  0.26649951  0.74972266    -0.75160
C398        C  0.31719274  0.39782798  0.75725736     0.92980
O399        O  0.29313677  0.29209899  0.67518221    -0.74970
O400        O  0.30637713  0.40389198  0.73554602    -0.82480
Mg401      Mg  0.26501928  0.26112772  0.69352670     1.57960
C402        C  0.33089889  0.31984817  0.82262419     0.92900
O403        O  0.23853220  0.23137151  0.71139112    -0.80740
H404        H  0.25341846  0.28092169  0.80452075    -0.06090
C405        C  0.33623994  0.32355840  0.73881386     0.87840
O406        O  0.23529214  0.34764948  0.73332562    -0.75250
O407        O  0.28958665  0.25587074  0.72635712    -0.88020
O408        O  0.31681618  0.30097169  0.81568215    -0.80830
C409        C  0.32242485  0.22150100  0.78916306     0.93020
C410        C  0.24800390  0.20898386  0.71674648     0.92870
Mg411      Mg  0.30076743  0.34553892  0.77779375     1.57950
O412        O  0.32722419  0.37522048  0.75920053    -0.80750
O413        O  0.27193057  0.31556167  0.79664294    -0.74990
O414        O  0.30285597  0.21939671  0.77421874    -0.80830
O415        O  0.23650907  0.26486703  0.66055004    -0.82540
O416        O  0.25725969  0.38874885  0.70202127    -0.80860
C417        C  0.26848652  0.29076152  0.79350638     0.87310
O418        O  0.27514623  0.35072435  0.74602778    -0.88000
O419        O  0.31903538  0.31658827  0.75440506    -0.88110
O420        O  0.33239918  0.34198929  0.72180301    -0.75160
Mg421      Mg  0.26833632  0.24283436  0.76109781     1.57970
O422        O  0.32899555  0.24320323  0.79969691    -0.82540
H423        H  0.20985945  0.29437954  0.73208409    -0.06260
O424        O  0.28226965  0.32998907  0.69341672    -0.87810
H425        H  0.31113558  0.32702728  0.66722530    -0.06090
H426        H  0.24603563  0.36478104  0.76807543    -0.06270
C427        C  0.29617890  0.31700948  0.67823443     0.87280
C428        C  0.22820096  0.28431059  0.73226447     0.87870
C429        C  0.25204871  0.35490673  0.75010755     0.87920
H430        H  0.35500005  0.31423588  0.74000620    -0.06240
O431        O  0.32973496  0.25830404  0.73833304    -0.75270
Mg432      Mg  0.29481113  0.36597191  0.71185692     1.58000
H433        H  0.31783534  0.23922053  0.70498774    -0.06260
C434        C  0.23176490  0.28661327  0.64928000     0.92900
O435        O  0.24044899  0.36403212  0.67063917    -0.82500
C436        C  0.23901874  0.38369857  0.68592079     0.92960
O437        O  0.25585844  0.20487497  0.74011651    -0.82490
Mg438      Mg  0.32322983  0.28101333  0.77706102     1.58180
O439        O  0.24566622  0.30650762  0.65375518    -0.80820
O440        O  0.32982956  0.34155525  0.81035033    -0.82510
C441        C  0.00185967  0.36188492  0.65929887     0.00810
C442        C  0.02868097  0.36340009  0.65768683     0.00810
C443        C  0.36152306  0.36387601  0.98448789     0.00810
C444        C  0.36038216  0.36528778  0.01203010     0.00810
C445        C  0.34672550  0.03693386  0.32850305     0.00810
C446        C  0.34995106  0.00985744  0.33269881     0.00810
C447        C  0.28616629  0.41848640  0.07905874     0.03370
C448        C  0.26732372  0.43930539  0.08070838    -0.12780
C449        C  0.24987347  0.43985102  0.10273151     0.00870
C450        C  0.25044929  0.41843292  0.12020265    -0.11300
C451        C  0.27222757  0.40263876  0.12196433     0.03370
C452        C  0.28933696  0.40158613  0.10087245    -0.10720
H453        H  0.26719529  0.45493815  0.06605103     0.08960
H454        H  0.23724865  0.41848717  0.13687331     0.06490
H455        H  0.30587201  0.38842178  0.10204098     0.06340
C456        C  0.45414266  0.27228888  0.10659417     0.03370
C457        C  0.44603913  0.28125844  0.08082429    -0.12780
C458        C  0.42740348  0.30215727  0.07876058     0.00870
C459        C  0.41698430  0.31238767  0.10192945    -0.11300
C460        C  0.42257750  0.30116725  0.12637101     0.03370
C461        C  0.44264331  0.28332824  0.12906170    -0.10720
H462        H  0.45334999  0.27176162  0.06313101     0.08960
H463        H  0.40133303  0.32669439  0.10054239     0.06490
H464        H  0.44665663  0.27515872  0.14855299     0.06340
C465        C  0.40542887  0.09923170  0.25154883     0.03370
C466        C  0.43099843  0.10190469  0.24144900    -0.12780
C467        C  0.43498358  0.11607978  0.21732418     0.00870
C468        C  0.41361818  0.12477078  0.20288464    -0.11300
C469        C  0.38937964  0.12570070  0.21451334     0.03370
C470        C  0.38533783  0.11280440  0.23866403    -0.10720
H471        H  0.44721346  0.09352497  0.25212962     0.08960
H472        H  0.41659661  0.13536957  0.18438109     0.06490
H473        H  0.36638293  0.11338375  0.24768803     0.06340
C474        C  0.25500074  0.13718843  0.38093611     0.03370
C475        C  0.27735517  0.12209507  0.38081945    -0.12780
C476        C  0.27968758  0.09998778  0.39735406     0.00870
C477        C  0.26264484  0.09817381  0.41976110    -0.11300
C478        C  0.24238149  0.11745107  0.42268124     0.03370
C479        C  0.23759176  0.13457944  0.40151848    -0.10720
H480        H  0.29079290  0.12462407  0.36451544     0.08960
H481        H  0.26438290  0.08196547  0.43370697     0.06490
H482        H  0.21993461  0.14595449  0.40112273     0.06340
C483        C  0.11618725  0.24309011  0.41506875     0.03370
C484        C  0.13247107  0.24299405  0.39299632    -0.12780
C485        C  0.13079031  0.26268605  0.37388247     0.00870
C486        C  0.10972590  0.27934268  0.37304282    -0.11300
C487        C  0.09055106  0.27785568  0.39231179     0.03370
C488        C  0.09390811  0.26001322  0.41426419    -0.10720
H489        H  0.14920038  0.23008217  0.39277180     0.08960
H490        H  0.10881436  0.29445596  0.35770745     0.06490
H491        H  0.08012954  0.25984055  0.43034997     0.06340
C492        C  0.09404142  0.42658405  0.27812190     0.03370
C493        C  0.09531861  0.44315636  0.25505540    -0.12780
C494        C  0.11727403  0.45980748  0.25126065     0.00870
C495        C  0.13567900  0.46049190  0.27177243    -0.11300
C496        C  0.13687712  0.44084120  0.29098585     0.03370
C497        C  0.11555173  0.42477853  0.29489735    -0.10720
H498        H  0.07974886  0.44304237  0.24076227     0.08960
H499        H  0.15280521  0.47256751  0.26966512     0.06490
H500        H  0.11637256  0.40938111  0.30991172     0.06340
O501        O  0.31305719  0.31093283  0.23682747    -0.88100
C502        C  0.24149933  0.33771712  0.24383596     0.87930
Mg503      Mg  0.31949381  0.27426389  0.21746414     1.58150
O504        O  0.27661592  0.32733168  0.30252996    -0.87830
O505        O  0.32396553  0.33884575  0.26836578    -0.75160
C506        C  0.24793710  0.20342626  0.29012885     0.92980
O507        O  0.26384936  0.30136878  0.19679049    -0.74970
O508        O  0.25939260  0.19846664  0.26854640    -0.82480
Mg509      Mg  0.28878255  0.33582303  0.21332070     1.57960
C510        C  0.23472659  0.28245286  0.34993958     0.92900
O511        O  0.31305571  0.36827395  0.22932985    -0.80740
H512        H  0.30800810  0.33050106  0.32555676    -0.06090
C513        C  0.22706635  0.27390047  0.27177918     0.87840
O514        O  0.32950006  0.25512484  0.25737288    -0.75250
O515        O  0.26507780  0.33786780  0.24721525    -0.88020
O516        O  0.24526284  0.30417712  0.34434635    -0.80830
C517        C  0.22778177  0.37859187  0.30373315     0.93020
C518        C  0.30069246  0.38948351  0.22920000     0.92870
Mg519      Mg  0.26960069  0.25762892  0.30826090     1.57950
O520        O  0.24143310  0.22684739  0.29486132    -0.80750
O521        O  0.29545458  0.29263711  0.32102036    -0.74990
O522        O  0.24712299  0.38005571  0.28856887    -0.80830
O523        O  0.31547572  0.33562533  0.17893280    -0.82540
O524        O  0.30407534  0.21093734  0.22781653    -0.80860
C525        C  0.29376923  0.31755052  0.31681257     0.87310
O526        O  0.29082566  0.25231916  0.27314321    -0.88000
O527        O  0.24428631  0.28246133  0.28658850    -0.88110
O528        O  0.23163466  0.25653972  0.25407491    -0.75160
Mg529      Mg  0.28470629  0.36002016  0.27821275     1.57970
O530        O  0.22508000  0.35923301  0.31958776    -0.82540
H531        H  0.34915876  0.31312117  0.25100345    -0.06260
O532        O  0.27890448  0.26744925  0.21904082    -0.87810
H533        H  0.25035474  0.26377952  0.19243288    -0.06090
H534        H  0.32151530  0.23893560  0.29334390    -0.06270
C535        C  0.26377823  0.27676195  0.20241293     0.87280
C536        C  0.32955313  0.32038472  0.25197286     0.87870
C537        C  0.31413917  0.24822401  0.27553122     0.87920
H538        H  0.20762758  0.28136870  0.27396774    -0.06240
O539        O  0.22625114  0.33257161  0.26267868    -0.75270
Mg540      Mg  0.26875041  0.23414225  0.24192146     1.58000
H541        H  0.23354633  0.34187888  0.22452310    -0.06260
C542        C  0.32455719  0.31350427  0.17249819     0.92900
O543        O  0.32543460  0.23512765  0.19821115    -0.82500
C544        C  0.32170826  0.21353799  0.21046242     0.92960
O545        O  0.29044740  0.39658277  0.25064550    -0.82490
Mg546      Mg  0.23601190  0.31904635  0.30411215     1.58180
O547        O  0.31173971  0.29303009  0.17810998    -0.80820
O548        O  0.24669451  0.26115439  0.34563384    -0.82510
C549        C  0.02864009  0.34929110  0.33083174     0.00810
C550        C  0.00217456  0.35291431  0.33299263     0.00810
C551        C  0.67270117  0.38321714  0.99466401     0.00810
C552        C  0.65265917  0.36401542  0.99517374     0.00810
C553        C  0.94085082  0.42612693  0.26820990     0.03370
C554        C  0.94134232  0.44053637  0.24347837    -0.12780
C555        C  0.91785363  0.45164924  0.23308905     0.00870
C556        C  0.89565640  0.44958626  0.24879858    -0.11300
C557        C  0.89407205  0.42855280  0.26625700     0.03370
C558        C  0.91647501  0.42090921  0.27937980    -0.10720
H559        H  0.95891665  0.44233281  0.23227621     0.08960
H560        H  0.87751484  0.45685046  0.24083190     0.06490
H561        H  0.91473988  0.40592533  0.29471831     0.06340
C562        C  0.91592802  0.26012223  0.43283019     0.03370
C563        C  0.93982423  0.27370279  0.42820374    -0.12780
C564        C  0.94020842  0.29503757  0.40932321     0.00870
C565        C  0.91671976  0.30313343  0.39839802    -0.11300
C566        C  0.89712518  0.28475745  0.39686791     0.03370
C567        C  0.89523990  0.26506277  0.41569025    -0.10720
H568        H  0.95736035  0.26720164  0.43790808     0.08960
H569        H  0.91659260  0.31922804  0.38404229     0.06490
H570        H  0.87862852  0.25205737  0.41542889     0.06340
C571        C  0.57558301  0.26088304  0.09362808     0.03370
C572        C  0.57929679  0.27610520  0.06950706    -0.12780
C573        C  0.59538952  0.29959446  0.07008037     0.00870
C574        C  0.60940138  0.30469356  0.09325340    -0.11300
C575        C  0.60774013  0.28773555  0.11458227     0.03370
C576        C  0.58690546  0.27104982  0.11679570    -0.10720
H577        H  0.57214506  0.26885457  0.05073457     0.08960
H578        H  0.62509990  0.31890355  0.09297858     0.06490
H579        H  0.58476203  0.26064765  0.13551207     0.06340
C580        C  0.78673602  0.44812766  0.08130726     0.03370
C581        C  0.76071061  0.44926555  0.07111391    -0.12780
C582        C  0.74890464  0.42592938  0.06016021     0.00870
C583        C  0.76399755  0.40309702  0.05801468    -0.11300
C584        C  0.78764531  0.40113120  0.07083961     0.03370
C585        C  0.79951319  0.42364576  0.08067131    -0.10720
H586        H  0.74971928  0.46742260  0.07216262     0.08960
H587        H  0.75535659  0.38501932  0.05066689     0.06490
H588        H  0.81752848  0.42114622  0.09142346     0.06340
C589        C  0.61204757  0.08647237  0.25793935     0.03370
C590        C  0.58922708  0.08750919  0.24158755    -0.12780
C591        C  0.58708698  0.10785849  0.22151786     0.00870
C592        C  0.60786762  0.12486765  0.21748786    -0.11300
C593        C  0.62882611  0.12400574  0.23412570     0.03370
C594        C  0.63014918  0.10644254  0.25493272    -0.10720
H595        H  0.57393136  0.07323475  0.24427198     0.08960
H596        H  0.60719886  0.13989870  0.20206369     0.06490
H597        H  0.64704425  0.10701322  0.26775589     0.06340
C598        C  0.76455875  0.13545811  0.43343380     0.03370
C599        C  0.75608103  0.11087080  0.42180341    -0.12780
C600        C  0.73302114  0.11049425  0.40582252     0.00870
C601        C  0.72277161  0.13485317  0.39765702    -0.11300
C602        C  0.73265416  0.15837174  0.40723943     0.03370
C603        C  0.74801175  0.15741240  0.42993034    -0.10720
H604        H  0.76717945  0.09292723  0.42405565     0.08960
H605        H  0.70968023  0.13552415  0.38084858     0.06490
H606        H  0.75323871  0.17626931  0.43866962     0.06340
O607        O  0.80301792  0.28878965  0.25551036    -0.88100
C608        C  0.82488952  0.26471156  0.18311359     0.87930
Mg609      Mg  0.79776913  0.26278186  0.28772326     1.58150
O610        O  0.76322846  0.28983334  0.19359760    -0.87830
O611        O  0.78692293  0.32421760  0.23699887    -0.75160
C612        C  0.72045614  0.18082591  0.23751455     0.92980
O613        O  0.83893693  0.23823530  0.24104555    -0.74970
O614        O  0.73521132  0.18133501  0.25741557    -0.82480
Mg615      Mg  0.83906029  0.28362461  0.23610423     1.57960
C616        C  0.70018664  0.25711158  0.16728439     0.92900
O617        O  0.84238149  0.32707468  0.23219093    -0.80740
H618        H  0.74039509  0.32009487  0.20414927    -0.06090
C619        C  0.77174984  0.21185407  0.19311082     0.87840
O620        O  0.75442885  0.26761196  0.28447003    -0.75250
O621        O  0.81825860  0.28043784  0.20066782    -0.88020
O622        O  0.72115498  0.26704076  0.15909740    -0.80830
C623        C  0.78714630  0.30766245  0.13234358     0.93020
C624        C  0.83947909  0.34612394  0.21623636     0.92870
Mg625      Mg  0.72616878  0.23899953  0.21793605     1.57950
O626        O  0.72396928  0.19518771  0.21748772    -0.80750
O627        O  0.72746901  0.28404775  0.21572557    -0.74990
O628        O  0.80422661  0.30731043  0.15018663    -0.80830
O629        O  0.85944117  0.28985782  0.27438732    -0.82540
O630        O  0.76277770  0.20970440  0.30202109    -0.80860
C631        C  0.74355901  0.29893385  0.20410717     0.87310
O632        O  0.74875306  0.24056401  0.25152662    -0.88000
O633        O  0.75970530  0.23301469  0.19439387    -0.88110
O634        O  0.77791992  0.19895040  0.21388526    -0.75160
Mg635      Mg  0.79506929  0.31483840  0.19327170     1.57970
O636        O  0.76868858  0.29135907  0.13231619    -0.82540
H637        H  0.78756605  0.31825959  0.27684023    -0.06260
O638        O  0.80190979  0.23067388  0.26025344    -0.87810
H639        H  0.82684527  0.20153212  0.25189604    -0.06090
H640        H  0.71914019  0.25797091  0.27014069    -0.06270
C641        C  0.82264151  0.22250831  0.25128932     0.87280
C642        C  0.79245595  0.31067699  0.25744883     0.87870
C643        C  0.73975808  0.25507841  0.26890973     0.87920
H644        H  0.77734211  0.20427885  0.17391338    -0.06240
O645        O  0.80845762  0.25477622  0.16716537    -0.75270
Mg646      Mg  0.77032935  0.20590998  0.25847971     1.58000
H647        H  0.84499502  0.25931794  0.18128804    -0.06260
C648        C  0.85504803  0.27558414  0.29437605     0.92900
O649        O  0.79032735  0.23665475  0.32235509    -0.82500
C650        C  0.77247622  0.21959461  0.32281910     0.92960
O651        O  0.82716059  0.34399001  0.19469093    -0.82490
Mg652      Mg  0.76418572  0.26054576  0.16377044     1.58180
O653        O  0.83945981  0.25661881  0.29358084    -0.80820
O654        O  0.69943381  0.23914169  0.18460760    -0.82510
C655        C  0.67644059  0.03663283  0.33781523     0.00810
C656        C  0.67273001  0.01013867  0.34409799     0.00810
C657        C  0.77128817  0.91510153  0.43348799     0.03370
C658        C  0.76227121  0.93975107  0.42265952    -0.12780
C659        C  0.73979494  0.94014306  0.40595769     0.00870
C660        C  0.72688359  0.91630800  0.40112606    -0.11300
C661        C  0.73673310  0.89230628  0.41029815     0.03370
C662        C  0.75786423  0.89199909  0.42709400    -0.10720
H663        H  0.77260367  0.95790749  0.42661905     0.08960
H664        H  0.71090415  0.91594212  0.38718138     0.06490
H665        H  0.76573269  0.87290832  0.43300612     0.06340
C666        C  0.60046291  0.94881656  0.28293905     0.03370
C667        C  0.59090336  0.94403866  0.25667404    -0.12780
C668        C  0.58639375  0.91731588  0.24809967     0.00870
C669        C  0.59542841  0.89751885  0.26545539    -0.11300
C670        C  0.59973697  0.90212975  0.29222075     0.03370
C671        C  0.60073675  0.92788650  0.30114826    -0.10720
H672        H  0.58799075  0.96076118  0.24384673     0.08960
H673        H  0.59928846  0.87776407  0.25804333     0.06490
H674        H  0.60685186  0.93113320  0.32148633     0.06340
C675        C  0.91742436  0.79905886  0.36674231     0.03370
C676        C  0.90775943  0.80875987  0.39056162    -0.12780
C677        C  0.91674652  0.79913829  0.41493092     0.00870
C678        C  0.93621328  0.77889104  0.41487438    -0.11300
C679        C  0.94723117  0.77036824  0.39024387     0.03370
C680        C  0.93866906  0.78228217  0.36683898    -0.10720
H681        H  0.89098428  0.82161781  0.39021814     0.08960
H682        H  0.94212386  0.76964485  0.43329528     0.06490
H683        H  0.94528474  0.77450222  0.34794488     0.06340
C684        C  0.93660486  0.63058695  0.25393073     0.03370
C685        C  0.93656203  0.60468560  0.24180841    -0.12780
C686        C  0.91727180  0.59828210  0.22226263     0.00870
C687        C  0.89931230  0.61744782  0.21527355    -0.11300
C688        C  0.89915674  0.64183945  0.22716652     0.03370
C689        C  0.91630856  0.64786211  0.24735828    -0.10720
H690        H  0.95117068  0.59024494  0.24703664     0.08960
H691        H  0.88453100  0.61316141  0.20056505     0.06490
H692        H  0.91401192  0.66654972  0.25758558     0.06340
C693        C  0.60295690  0.73520483  0.08327356     0.03370
C694        C  0.59307145  0.76163953  0.08419524    -0.12780
C695        C  0.58122623  0.77112901  0.10779361     0.00870
C696        C  0.58215814  0.75519787  0.13043439    -0.11300
C697        C  0.59064155  0.72884560  0.12985677     0.03370
C698        C  0.60000424  0.71891391  0.10569431    -0.10720
H699        H  0.59447495  0.77438120  0.06697766     0.08960
H700        H  0.57615291  0.76408195  0.14886772     0.06490
H701        H  0.60707008  0.69880949  0.10464306     0.06340
C702        C  0.78223292  0.59670609  0.10431112     0.03370
C703        C  0.76270960  0.59422574  0.08424165    -0.12780
C704        C  0.74572214  0.61600327  0.07925407     0.00870
C705        C  0.74814757  0.63864919  0.09451151    -0.11300
C706        C  0.76820954  0.64178197  0.11217884     0.03370
C707        C  0.78541797  0.62128609  0.11696495    -0.10720
H708        H  0.76050884  0.57598399  0.07326066     0.08960
H709        H  0.73497230  0.65516461  0.09129672     0.06490
H710        H  0.80056761  0.62402709  0.13156566     0.06340
O711        O  0.76087931  0.79848248  0.27996833    -0.88100
C712        C  0.77754206  0.72423947  0.26696761     0.87930
Mg713      Mg  0.72254027  0.80692226  0.29230649     1.58150
O714        O  0.77503704  0.77019955  0.21512395    -0.87830
O715        O  0.79306571  0.81030103  0.25478895    -0.75160
C716        C  0.65040886  0.74571560  0.20585767     0.92980
O717        O  0.73749336  0.74605070  0.30794244    -0.74970
O718        O  0.64635893  0.75723100  0.22796889    -0.82480
Mg719      Mg  0.77673369  0.76781995  0.30448259     1.57960
C720        C  0.74208538  0.74172432  0.15064151     0.92900
O721        O  0.81623355  0.78705553  0.30396956    -0.80740
H722        H  0.78530671  0.80494685  0.19904221    -0.06090
C723        C  0.71446070  0.72270906  0.22518582     0.87840
O724        O  0.71336153  0.82382868  0.25087199    -0.75250
O725        O  0.78315167  0.74796618  0.26870816    -0.88020
O726        O  0.75900853  0.75245499  0.16453810    -0.80830
C727        C  0.81997832  0.71511678  0.20870817     0.93020
C728        C  0.83741909  0.78184573  0.29253493     0.92870
Mg729      Mg  0.70911402  0.77137869  0.19207587     1.57950
O730        O  0.67129403  0.74884951  0.19303946    -0.80750
O731        O  0.74794077  0.79485921  0.19188484    -0.74990
O732        O  0.82198994  0.73043912  0.22840924    -0.80830
O733        O  0.77022093  0.79201030  0.34177447    -0.82540
O734        O  0.65959998  0.80334664  0.27228555    -0.80860
C735        C  0.77019806  0.79054425  0.20205836     0.87310
O736        O  0.69942429  0.78998531  0.22792200    -0.88000
O737        O  0.72643938  0.74150095  0.21558662    -0.88110
O738        O  0.69633757  0.72645913  0.24153108    -0.75160
Mg739      Mg  0.80641233  0.76987050  0.24134139     1.57970
O740        O  0.80309763  0.71851846  0.19093448    -0.82540
H741        H  0.76957853  0.83659659  0.27236109    -0.06260
O742        O  0.71149628  0.76848994  0.28197932    -0.87810
H743        H  0.69981014  0.73652199  0.30214912    -0.06090
H744        H  0.70025268  0.82670397  0.21300795    -0.06270
C745        C  0.71544709  0.74982347  0.29740715     0.87280
C746        C  0.77412809  0.81600937  0.26948445     0.87870
C747        C  0.70382176  0.81396296  0.22988481     0.87920
H748        H  0.71991919  0.70269698  0.22004727    -0.06240
O749        O  0.76998150  0.71411581  0.24520178    -0.75270
Mg750      Mg  0.67929229  0.76534834  0.25629488     1.58000
H751        H  0.77878164  0.71191753  0.28448052    -0.06260
C752        C  0.74780291  0.80046489  0.34669737     0.92900
O753        O  0.68383457  0.81609368  0.30635560    -0.82500
C754        C  0.66389964  0.81824674  0.29224396     0.92960
O755        O  0.83876017  0.77138241  0.26980571    -0.82490
Mg756      Mg  0.76398152  0.73209962  0.20360408     1.58180
O757        O  0.72899393  0.79168132  0.33369623    -0.80820
O758        O  0.71874685  0.74823623  0.15396094    -0.82510
C759        C  0.99799558  0.67933473  0.33990447     0.00810
C760        C  0.02484287  0.67528010  0.34134338     0.00810
C761        C  0.29379118  0.93778438  0.39607503     0.03370
C762        C  0.27826884  0.93128264  0.41849361    -0.12780
C763        C  0.26592329  0.90612523  0.41943339     0.00870
C764        C  0.26924805  0.88860840  0.39846506    -0.11300
C765        C  0.28340008  0.89556478  0.37629849     0.03370
C766        C  0.29600011  0.91965521  0.37522438    -0.10720
H767        H  0.27580324  0.94530799  0.43450588     0.08960
H768        H  0.26018449  0.86923855  0.39917462     0.06490
H769        H  0.30718120  0.92457862  0.35772860     0.06340
C770        C  0.41529498  0.94457950  0.26109633     0.03370
C771        C  0.43687591  0.94965311  0.24378912    -0.12780
C772        C  0.44432038  0.93013522  0.22456371     0.00870
C773        C  0.42872303  0.90811825  0.22110264    -0.11300
C774        C  0.40986572  0.90203954  0.23916774     0.03370
C775        C  0.40475180  0.91885095  0.26020184    -0.10720
H776        H  0.44740112  0.96796933  0.24460348     0.08960
H777        H  0.43262621  0.89425687  0.20528649     0.06490
H778        H  0.39042484  0.91260873  0.27452750     0.06340
C779        C  0.22677653  0.60663653  0.08322694     0.03370
C780        C  0.21120682  0.62940457  0.08213541    -0.12780
C781        C  0.21917080  0.65171550  0.06803935     0.00870
C782        C  0.24051209  0.64948795  0.05130266    -0.11300
C783        C  0.25972344  0.63034552  0.05655507     0.03370
C784        C  0.25217651  0.60812397  0.07229594    -0.10720
H785        H  0.19448595  0.63087798  0.09493017     0.08960
H786        H  0.24525255  0.66672633  0.03950856     0.06490
H787        H  0.26577690  0.59273091  0.07713470     0.06340
C788        C  0.08682542  0.62652441  0.26072487     0.03370
C789        C  0.09694450  0.60356123  0.24779517    -0.12780
C790        C  0.11473307  0.60683147  0.22633098     0.00870
C791        C  0.12051219  0.63232664  0.21761428    -0.11300
C792        C  0.11227612  0.65415552  0.23169589     0.03370
C793        C  0.09552174  0.65139732  0.25277167    -0.10720
H794        H  0.09116943  0.58395885  0.25409672     0.08960
H795        H  0.13323639  0.63522985  0.20081437     0.06490
H796        H  0.08903245  0.66907338  0.26307281     0.06340
C797        C  0.10549532  0.72824930  0.39884488     0.03370
C798        C  0.11293771  0.75039098  0.41476211    -0.12780
C799        C  0.13868167  0.75200515  0.42519286     0.00870
C800        C  0.15515637  0.73027821  0.41974173    -0.11300
C801        C  0.15009377  0.71437593  0.39763285     0.03370
C802        C  0.12445030  0.71013879  0.39102248    -0.10720
H803        H  0.09939221  0.76636713  0.41721267     0.08960
H804        H  0.17482964  0.73040641  0.42700193     0.06490
H805        H  0.11993044  0.69627626  0.37531531     0.06340
C806        C  0.44151023  0.81332896  0.08666488     0.03370
C807        C  0.44366370  0.79021389  0.07040251    -0.12780
C808        C  0.42104372  0.77982068  0.05834930     0.00870
C809        C  0.39743178  0.79187183  0.06361327    -0.11300
C810        C  0.39519824  0.81239840  0.08128001     0.03370
C811        C  0.41704302  0.82429100  0.09148564    -0.10720
H812        H  0.46209784  0.78053821  0.06760496     0.08960
H813        H  0.37961695  0.78335240  0.05624729     0.06490
H814        H  0.41478947  0.84040362  0.10552363     0.06340
O815        O  0.28867141  0.78035365  0.18756276    -0.88100
C816        C  0.27467983  0.82940485  0.24828823     0.87930
Mg817      Mg  0.26455571  0.77627505  0.15431833     1.58150
O818        O  0.26775229  0.76121468  0.26024936    -0.87830
O819        O  0.31009110  0.75584221  0.21618022    -0.75160
C820        C  0.15655226  0.75416945  0.20733387     0.92980
O821        O  0.25774348  0.83581472  0.18617749    -0.74970
O822        O  0.16291738  0.76039140  0.18403738    -0.82480
Mg823      Mg  0.29763482  0.81968849  0.19819441     1.57960
C824        C  0.20314622  0.74036957  0.30167771     0.92900
O825        O  0.33771730  0.80398271  0.20754103    -0.80740
H826        H  0.28100469  0.72422164  0.26525575    -0.06090
C827        C  0.20417532  0.80474038  0.24074560     0.87840
O828        O  0.24968480  0.73784291  0.17393268    -0.75250
O829        O  0.28454694  0.81075511  0.23616101    -0.88020
O830        O  0.22588396  0.74935128  0.30198006    -0.80830
C831        C  0.28770114  0.80404180  0.31261860     0.93020
C832        C  0.34970345  0.80895207  0.22882255     0.92870
Mg833      Mg  0.20519393  0.74607706  0.23966111     1.57950
O834        O  0.16803179  0.76528295  0.22635838    -0.80750
O835        O  0.24365141  0.72655997  0.25290298    -0.74990
O836        O  0.30181041  0.80284593  0.29232294    -0.80830
O837        O  0.31154911  0.82837049  0.15849795    -0.82540
O838        O  0.20663935  0.75310724  0.14222230    -0.80860
C839        C  0.26502305  0.73688951  0.25974282     0.87310
O840        O  0.22053949  0.75188019  0.20144619    -0.88000
O841        O  0.21678090  0.78500865  0.24808091    -0.88110
O842        O  0.19615379  0.80741145  0.21678199    -0.75160
Mg843      Mg  0.30463530  0.77864112  0.25524897     1.57970
O844        O  0.26913480  0.78816915  0.31580054    -0.82540
H845        H  0.30805931  0.74776369  0.17675030    -0.06260
O846        O  0.23669609  0.80048242  0.17312617    -0.87810
H847        H  0.22137592  0.83685930  0.17113464    -0.06090
H848        H  0.22854790  0.71331955  0.19726136    -0.06270
C849        C  0.23790182  0.82478336  0.17626117     0.87280
C850        C  0.30258249  0.76096645  0.19265254     0.87870
C851        C  0.23254934  0.73345244  0.19123939     0.87920
H852        H  0.19963207  0.81995969  0.25507104    -0.06240
O853        O  0.25759617  0.82537780  0.26572058    -0.75270
Mg854      Mg  0.20094308  0.78133381  0.17847438     1.58000
H855        H  0.28038222  0.84946285  0.24364593    -0.06260
C856        C  0.30218224  0.82328394  0.13593104     0.92900
O857        O  0.23896898  0.76921127  0.11889551    -0.82500
C858        C  0.22189330  0.75173403  0.12247577     0.92960
O859        O  0.34225925  0.79918906  0.25052913    -0.82490
Mg860      Mg  0.24177444  0.78613113  0.28167456     1.58180
O861        O  0.28024556  0.81266171  0.13280915    -0.80820
O862        O  0.18951481  0.74050054  0.28081604    -0.82510
C863        C  0.36906699  0.68413609  0.99703229     0.00810
C864        C  0.34773606  0.66700912  0.99836777     0.00810
C865        C  0.41984282  0.72278509  0.05608597    -0.05530
C866        C  0.41821767  0.75616261  0.04113976     0.00390
C867        C  0.39539441  0.76244878  0.01357220    -0.08180
C868        C  0.37262774  0.73727639  0.00307414    -0.05560
C869        C  0.37409923  0.70345476  0.01780277     0.00380
C870        C  0.39724831  0.69630223  0.04503834    -0.08090
C871        C  0.39975959  0.66940835  0.05725785     0.62290
H872        H  0.43184322  0.71943055  0.07321706     0.12980
H873        H  0.36029923  0.74117117  0.98594418     0.13000
C874        C  0.39430287  0.78875466  0.99979699     0.62520
F875        F  0.42491174  0.66064470  0.05491996    -0.22640
F876        F  0.38368667  0.65151568  0.04495585    -0.19970
F877        F  0.39342448  0.67092336  0.08381724    -0.19650
F878        F  0.41390846  0.80514870  0.00838232    -0.19700
F879        F  0.37077998  0.80066117  0.00473074    -0.20020
F880        F  0.39692532  0.78495560  0.97281694    -0.22700
C881        C  0.35620869  0.83922390  0.09016286    -0.05530
C882        C  0.37020246  0.81570014  0.09395624     0.00390
C883        C  0.35963189  0.79435306  0.10862547    -0.08180
C884        C  0.33438459  0.79660181  0.11720110    -0.05560
C885        C  0.32112468  0.82060258  0.11528972     0.00380
C886        C  0.33179124  0.84235883  0.10176333    -0.08090
C887        C  0.31734475  0.86835889  0.09999437     0.62290
H888        H  0.36481534  0.85515573  0.07884898     0.12980
H889        H  0.32580578  0.78045564  0.12834119     0.13000
C890        C  0.37520655  0.76998430  0.11696122     0.62520
F891        F  0.33042092  0.88670278  0.08469746    -0.22640
F892        F  0.31408520  0.87879774  0.12511881    -0.19970
F893        F  0.29339766  0.86409286  0.08865435    -0.19650
F894        F  0.39964413  0.77729180  0.12518423    -0.19700
F895        F  0.37713345  0.75236071  0.09613408    -0.20020
F896        F  0.36372991  0.75683046  0.13796345    -0.22700
C897        C  0.18978967  0.70634130  0.33446691    -0.05530
C898        C  0.19150751  0.73305583  0.32688786     0.00390
C899        C  0.18174659  0.75317279  0.34334456    -0.08180
C900        C  0.16865267  0.74577279  0.36613210    -0.05560
C901        C  0.16677386  0.71919359  0.37430807     0.00380
C902        C  0.17769206  0.69899482  0.35842619    -0.08090
C903        C  0.17667105  0.67017279  0.36678503     0.62290
H904        H  0.19787741  0.69141337  0.32149701     0.12980
H905        H  0.15891810  0.76096342  0.37735796     0.13000
C906        C  0.18487386  0.78243012  0.33670310     0.62520
F907        F  0.19048914  0.65413157  0.34965251    -0.22640
F908        F  0.15145682  0.66142757  0.36705422    -0.19970
F909        F  0.18710509  0.66744243  0.39191566    -0.19650
F910        F  0.17368788  0.78789295  0.31237024    -0.19700
F911        F  0.21080059  0.78870565  0.33578466    -0.20020
F912        F  0.17345937  0.79865144  0.35547340    -0.22700
C913        C  0.11868530  0.69029548  0.20017871    -0.05530
C914        C  0.12279538  0.67999861  0.22562884     0.00390
C915        C  0.13637590  0.69458938  0.24487478    -0.08180
C916        C  0.14268563  0.72052890  0.23880524    -0.05560
C917        C  0.14112931  0.73032228  0.21272584     0.00380
C918        C  0.12883019  0.71490083  0.19279608    -0.08090
C919        C  0.12677866  0.72351732  0.16396921     0.62290
H920        H  0.10837792  0.67829771  0.18587032     0.12980
H921        H  0.15133858  0.73225744  0.25429603     0.13000
C922        C  0.14650510  0.68355436  0.27111140     0.62520
F923        F  0.11090412  0.70692936  0.14943642    -0.22640
F924        F  0.15090555  0.72291752  0.15231432    -0.19970
F925        F  0.11660339  0.74881920  0.16246079    -0.19650
F926        F  0.17263656  0.68864912  0.27301545    -0.19700
F927        F  0.14360673  0.65652833  0.27385134    -0.20020
F928        F  0.13406915  0.69589001  0.29188415    -0.22700
C929        C  0.29423116  0.66469315  0.05091216    -0.05530
C930        C  0.28739698  0.63766984  0.04883513     0.00390
C931        C  0.30594855  0.62055719  0.03713857    -0.08180
C932        C  0.32915070  0.63159028  0.02695443    -0.05560
C933        C  0.33298435  0.65925325  0.02370859     0.00380
C934        C  0.31515163  0.67617597  0.03710714    -0.08090
C935        C  0.31691374  0.70624603  0.03699365     0.62290
H936        H  0.28158671  0.67750548  0.06206587     0.12980
H937        H  0.34318171  0.61853909  0.01798756     0.13000
C938        C  0.30113983  0.59113875  0.03360068     0.62520
F939        F  0.29445039  0.71801710  0.04607858    -0.22640
F940        F  0.32099742  0.71579387  0.01170545    -0.19970
F941        F  0.33660346  0.71407106  0.05368190    -0.19650
F942        F  0.27664198  0.58689226  0.02358008    -0.19700
F943        F  0.30391939  0.57834781  0.05767818    -0.20020
F944        F  0.31847474  0.57986671  0.01604947    -0.22700
C945        C  0.23786715  0.68291817  0.09872129    -0.05530
C946        C  0.21726441  0.67743698  0.08178581     0.00390
C947        C  0.19833545  0.69694423  0.07698344    -0.08180
C948        C  0.20044395  0.72147577  0.09038209    -0.05560
C949        C  0.22215821  0.72742516  0.10618324     0.00380
C950        C  0.24199382  0.70798806  0.10915439    -0.08090
C951        C  0.26799391  0.71130015  0.12283393     0.62290
H952        H  0.25218615  0.66756653  0.10230703     0.12980
H953        H  0.18540203  0.73626544  0.08834783     0.13000
C954        C  0.17641526  0.69164322  0.05792017     0.62520
F955        F  0.28729974  0.70123881  0.10680066    -0.22640
F956        F  0.26810405  0.69707634  0.14631320    -0.19970
F957        F  0.27445245  0.73711698  0.12781282    -0.19650
F958        F  0.16235959  0.67008994  0.06663301    -0.19700
F959        F  0.18627874  0.68620037  0.03303632    -0.20020
F960        F  0.15998313  0.71319425  0.05579538    -0.22700
C961        C  0.40342964  0.85501504  0.24879794    -0.05530
C962        C  0.39519660  0.87783273  0.23543598     0.00390
C963        C  0.37417749  0.87709021  0.21767116    -0.08180
C964        C  0.36113050  0.85321027  0.21465164    -0.05560
C965        C  0.36827840  0.83059592  0.22914013     0.00380
C966        C  0.39013896  0.83106088  0.24598996    -0.08090
C967        C  0.39966069  0.80651315  0.26044696     0.62290
H968        H  0.42011295  0.85628961  0.26171710     0.12980
H969        H  0.34425695  0.85246049  0.20196456     0.13000
C970        C  0.36516308  0.90155628  0.20260463     0.62520
F971        F  0.42394305  0.81031433  0.27126232    -0.22640
F972        F  0.40113773  0.78550678  0.24292493    -0.19970
F973        F  0.38305473  0.80013690  0.28085946    -0.19650
F974        F  0.38450609  0.91036329  0.18599378    -0.19700
F975        F  0.35890243  0.92141417  0.22031969    -0.20020
F976        F  0.34359564  0.89648945  0.18718655    -0.22700
C977        C  0.30929695  0.86505262  0.34998756    -0.05530
C978        C  0.28516805  0.87654256  0.35475975     0.00390
C979        C  0.26262164  0.86558947  0.34361683    -0.08180
C980        C  0.26445067  0.84087395  0.33173521    -0.05560
C981        C  0.28835077  0.82828227  0.32829147     0.00380
C982        C  0.31141295  0.84129340  0.33584226    -0.08090
C983        C  0.33790045  0.83022273  0.32945233     0.62290
H984        H  0.32630189  0.87432579  0.35831683     0.12980
H985        H  0.24701677  0.83186410  0.32397424     0.13000
C986        C  0.23637122  0.87905900  0.34391081     0.62520
F987        F  0.35731065  0.84420553  0.34207068    -0.22640
F988        F  0.34217479  0.83189199  0.30244482    -0.19970
F989        F  0.33952128  0.80407152  0.33747507    -0.19650
F990        F  0.23741014  0.90486476  0.35302248    -0.19700
F991        F  0.21970674  0.86476885  0.35978957    -0.20020
F992        F  0.22653955  0.87977805  0.31836258    -0.22700
C993        C  0.06114479  0.71000600  0.39980043    -0.05530
C994        C  0.07972631  0.72449691  0.38584501     0.00390
C995        C  0.07758364  0.72562711  0.35781803    -0.08180
C996        C  0.05986401  0.70900276  0.34467712    -0.05560
C997        C  0.04228886  0.69271467  0.35842346     0.00380
C998        C  0.04214347  0.69450778  0.38684010    -0.08090
C999        C  0.02372692  0.68010981  0.40512005     0.62290
H1000       H  0.06269753  0.70916117  0.42124583     0.12980
H1001       H  0.05953619  0.70901583  0.32316540     0.13000
C1002       C  0.09460800  0.74324616  0.34097174     0.62520
F1003       F  0.03763574  0.66428698  0.42245475    -0.22640
F1004       F  0.00642340  0.66427093  0.39207641    -0.19970
F1005       F  0.00997470  0.69856742  0.41964957    -0.19650
F1006       F  0.11160877  0.72777628  0.32672201    -0.19700
F1007       F  0.10852437  0.76113521  0.35598474    -0.20020
F1008       F  0.07943849  0.75756726  0.32344340    -0.22700
C1009       C  0.03303191  0.65957861  0.29421325    -0.05530
C1010       C  0.03889065  0.65712796  0.32143255     0.00390
C1011       C  0.05901712  0.63881580  0.32840086    -0.08180
C1012       C  0.07253775  0.62511608  0.30796968    -0.05560
C1013       C  0.06583845  0.62769557  0.28104522     0.00380
C1014       C  0.04396392  0.64326923  0.27468237    -0.08090
C1015       C  0.03390112  0.64585538  0.24647496     0.62290
H1016       H  0.02040700  0.67519544  0.28759390     0.12980
H1017       H  0.08993908  0.61416613  0.31272111     0.13000
C1018       C  0.06824556  0.63511093  0.35676879     0.62520
F1019       F  0.00756305  0.64209766  0.24631310    -0.22640
F1020       F  0.04453620  0.62721171  0.22960830    -0.19970
F1021       F  0.03927289  0.67089526  0.23682252    -0.19650
F1022       F  0.04760462  0.63264103  0.37377356    -0.19700
F1023       F  0.08316986  0.65644629  0.36432015    -0.20020
F1024       F  0.08313441  0.61245215  0.35940752    -0.22700
C1025       C  0.77415526  0.68923750  0.11006309    -0.05530
C1026       C  0.76898228  0.66700431  0.12592062     0.00390
C1027       C  0.75540457  0.66965250  0.14993923    -0.08180
C1028       C  0.74522810  0.69444864  0.15623093    -0.05560
C1029       C  0.74887390  0.71628852  0.13950385     0.00380
C1030       C  0.76427573  0.71416697  0.11663274    -0.08090
C1031       C  0.76931170  0.73793354  0.09899197     0.62290
H1032       H  0.78419261  0.68640349  0.09144123     0.12980
H1033       H  0.73459219  0.69711210  0.17448202     0.13000
C1034       C  0.75106992  0.64613565  0.16820707     0.62520
F1035       F  0.78321642  0.73112616  0.07658447    -0.22640
F1036       F  0.78317014  0.75675116  0.11287530    -0.19970
F1037       F  0.74608349  0.74882095  0.09092466    -0.19650
F1038       F  0.77461117  0.63524000  0.17525563    -0.19700
F1039       F  0.73638284  0.62713013  0.15551462    -0.20020
F1040       F  0.73840821  0.65341112  0.19122684    -0.22700
C1041       C  0.60439854  0.73469063  0.19774492    -0.05530
C1042       C  0.63053247  0.72878505  0.19378332     0.00390
C1043       C  0.63701546  0.70794397  0.17599229    -0.08180
C1044       C  0.61860552  0.70041556  0.15717638    -0.05560
C1045       C  0.59526381  0.71438411  0.15547818     0.00380
C1046       C  0.58610300  0.72548137  0.17948960    -0.08090
C1047       C  0.55774178  0.72870752  0.18533356     0.62290
H1048       H  0.59844057  0.74751272  0.21383946     0.12980
H1049       H  0.62444095  0.68722413  0.14144251     0.13000
C1050       C  0.66332331  0.69479193  0.17528978     0.62520
F1051       F  0.55202726  0.71539595  0.20857578    -0.22640
F1052       F  0.54283999  0.71815188  0.16518583    -0.19970
F1053       F  0.55156169  0.75518270  0.18854873    -0.19650
F1054       F  0.67272900  0.69168953  0.20075165    -0.19700
F1055       F  0.68020447  0.70984232  0.16045669    -0.20020
F1056       F  0.66192238  0.66986880  0.16393918    -0.22700
C1057       C  0.96462511  0.62558623  0.29521524    -0.05530
C1058       C  0.95615923  0.64120828  0.27383020     0.00390
C1059       C  0.96330556  0.66855693  0.27408617    -0.08180
C1060       C  0.97327588  0.68001766  0.29744416    -0.05560
C1061       C  0.98212414  0.66462542  0.31887238     0.00380
C1062       C  0.97849594  0.63643482  0.31705439    -0.08090
C1063       C  0.98826710  0.61652354  0.33719439     0.62290
H1064       H  0.96010947  0.60464035  0.29509910     0.12980
H1065       H  0.97719672  0.70111373  0.29761982     0.13000
C1066       C  0.96310578  0.68600486  0.24946505     0.62520
F1067       F  0.00622735  0.60015157  0.32525078    -0.22640
F1068       F  0.96793876  0.60124800  0.34612643    -0.19970
F1069       F  0.99960548  0.62807531  0.35886014    -0.19650
F1070       F  0.94369551  0.70472877  0.25136556    -0.19700
F1071       F  0.95994319  0.67153498  0.22644250    -0.20020
F1072       F  0.98647303  0.69903316  0.24735976    -0.22700
C1073       C  0.85508977  0.65557106  0.23156173    -0.05530
C1074       C  0.87885197  0.65996960  0.21961958     0.00390
C1075       C  0.88161905  0.67919156  0.19938833    -0.08180
C1076       C  0.86080399  0.69615917  0.19446874    -0.05560
C1077       C  0.83740307  0.69270494  0.20768844     0.00380
C1078       C  0.83379250  0.67086612  0.22489917    -0.08090
C1079       C  0.80844309  0.66431597  0.23805625     0.62290
H1080       H  0.85324459  0.63983315  0.24612821     0.12980
H1081       H  0.86309156  0.71270194  0.18093050     0.13000
C1082       C  0.90565442  0.68281837  0.18268581     0.62520
F1083       F  0.80637576  0.63730229  0.24238770    -0.22640
F1084       F  0.78789427  0.67178559  0.22222284    -0.19970
F1085       F  0.80729694  0.67693571  0.26228631    -0.19650
F1086       F  0.92442978  0.66396217  0.18748685    -0.19700
F1087       F  0.91600039  0.70754665  0.18759224    -0.20020
F1088       F  0.89897543  0.68122283  0.15614982    -0.22700
C1089       C  0.95012900  0.72169078  0.38313664    -0.05530
C1090       C  0.96327524  0.74587934  0.38559519     0.00390
C1091       C  0.98766926  0.74799822  0.37324521    -0.08180
C1092       C  0.99686918  0.72705688  0.35719597    -0.05560
C1093       C  0.98460461  0.70210526  0.35541170     0.00380
C1094       C  0.96004656  0.69988123  0.36836728    -0.08090
C1095       C  0.94298685  0.67562652  0.36548327     0.62290
H1096       H  0.93078616  0.72085190  0.39114116     0.12980
H1097       H  0.01357636  0.73072471  0.34510013     0.13000
C1098       C  0.00385109  0.77276418  0.37682864     0.62520
F1099       F  0.92160796  0.67683215  0.38184431    -0.22640
F1100       F  0.95652304  0.65306536  0.37216679    -0.19970
F1101       F  0.93404030  0.67378509  0.33971031    -0.19650
F1102       F  0.00605486  0.77833180  0.40360165    -0.19700
F1103       F  0.99249750  0.79409524  0.36413406    -0.20020
F1104       F  0.02846924  0.76953545  0.36673479    -0.22700
C1105       C  0.87102714  0.81118944  0.30991948    -0.05530
C1106       C  0.86072700  0.78564475  0.30774576     0.00390
C1107       C  0.87026351  0.76454959  0.32323442    -0.08180
C1108       C  0.88945997  0.77003973  0.34163593    -0.05560
C1109       C  0.89935066  0.79572442  0.34468559     0.00380
C1110       C  0.89069649  0.81661077  0.32829702    -0.08090
C1111       C  0.90222208  0.84408761  0.33018297     0.62290
H1112       H  0.86297025  0.82689862  0.29778084     0.12980
H1113       H  0.89631768  0.75440044  0.35463431     0.13000
C1114       C  0.85937507  0.73665099  0.32111674     0.62520
F1115       F  0.89252611  0.86076845  0.31072965    -0.22640
F1116       F  0.92867630  0.84251383  0.32710554    -0.19970
F1117       F  0.89673953  0.85512096  0.35459350    -0.19650
F1118       F  0.86225588  0.72745241  0.29546541    -0.19700
F1119       F  0.83346492  0.73679474  0.32759163    -0.20020
F1120       F  0.87182838  0.71909575  0.33799585    -0.22700
C1121       C  0.63813247  0.88498974  0.31204961    -0.05530
C1122       C  0.61187620  0.88087494  0.30768116     0.00390
C1123       C  0.60241874  0.85479375  0.30545588    -0.08180
C1124       C  0.62004218  0.83430795  0.30097209    -0.05560
C1125       C  0.64642439  0.83977648  0.29893244     0.00380
C1126       C  0.65584929  0.86562746  0.30478047    -0.08090
C1127       C  0.68352290  0.87497348  0.30076431     0.62290
H1128       H  0.64502782  0.90498608  0.31534314     0.12980
H1129       H  0.61311188  0.81428330  0.29797763     0.13000
C1130       C  0.57394919  0.84853792  0.30587850     0.62520
F1131       F  0.68374951  0.90010329  0.28963938    -0.22640
F1132       F  0.69722991  0.85906507  0.28374572    -0.19970
F1133       F  0.69599318  0.87592317  0.32499686    -0.19650
F1134       F  0.56663952  0.83772752  0.28183965    -0.19700
F1135       F  0.55916468  0.87088948  0.31065270    -0.20020
F1136       F  0.56916041  0.83035529  0.32579254    -0.22700
C1137       C  0.74591458  0.87101564  0.36926041    -0.05530
C1138       C  0.73372770  0.86881164  0.39375615     0.00390
C1139       C  0.72582752  0.84374150  0.40323008    -0.08180
C1140       C  0.73097222  0.82137439  0.38749319    -0.05560
C1141       C  0.74404039  0.82381411  0.36327598     0.00380
C1142       C  0.75129385  0.84909372  0.35381013    -0.08090
C1143       C  0.76291260  0.85354812  0.32669991     0.62290
H1144       H  0.75237398  0.89027714  0.36280895     0.12980
H1145       H  0.72495946  0.80193961  0.39420848     0.13000
C1146       C  0.71230201  0.83966582  0.42949727     0.62520
F1147       F  0.77029203  0.87957976  0.32257720    -0.22640
F1148       F  0.74434607  0.84759262  0.30815882    -0.19970
F1149       F  0.78452459  0.83788331  0.32328706    -0.19650
F1150       F  0.70656361  0.86323486  0.44214253    -0.19700
F1151       F  0.72786015  0.82461111  0.44599465    -0.20020
F1152       F  0.68940932  0.82630504  0.42523048    -0.22700
C1153       C  0.70882985  0.97731951  0.34901098    -0.05530
C1154       C  0.69167473  0.99472193  0.36185752     0.00390
C1155       C  0.69420652  0.99681587  0.39018587    -0.08180
C1156       C  0.71277657  0.98110285  0.40383876    -0.05560
C1157       C  0.72943244  0.96361682  0.39073075     0.00380
C1158       C  0.72833640  0.96312893  0.36254650    -0.08090
C1159       C  0.74730756  0.94771493  0.34569920     0.62290
H1160       H  0.70779296  0.97540904  0.32767085     0.12980
H1161       H  0.71307613  0.98120068  0.42535381     0.13000
C1162       C  0.67733286  0.01359651  0.40790666     0.62520
F1163       F  0.75777526  0.96440586  0.32679418    -0.22640
F1164       F  0.73454501  0.92736654  0.33290352    -0.19970
F1165       F  0.76748058  0.93734671  0.36041529    -0.19650
F1166       F  0.66516691  0.99753285  0.42625928    -0.19700
F1167       F  0.65866247  0.02718875  0.39428043    -0.20020
F1168       F  0.69254815  0.03160920  0.42136022    -0.22700
C1169       C  0.65948730  0.98709993  0.30181051    -0.05530
C1170       C  0.65290129  0.99485844  0.32775263     0.00390
C1171       C  0.62677840  0.99152633  0.33574761    -0.08180
C1172       C  0.60839723  0.98243852  0.31715709    -0.05560
C1173       C  0.61549736  0.97241756  0.29221217     0.00380
C1174       C  0.64143097  0.97589156  0.28398996    -0.08090
C1175       C  0.65017436  0.96721111  0.25664161     0.62290
H1176       H  0.67923032  0.98925321  0.29574877     0.12980
H1177       H  0.58863925  0.97935193  0.32334786     0.13000
C1178       C  0.61840850  0.99465215  0.36434556     0.62520
F1179       F  0.67566879  0.97376010  0.25191236    -0.22640
F1180       F  0.63519873  0.97968996  0.23762302    -0.19970
F1181       F  0.64776899  0.94006734  0.25405046    -0.19650
F1182       F  0.61725286  0.02102918  0.37105013    -0.19700
F1183       F  0.63550430  0.98141856  0.38074363    -0.20020
F1184       F  0.59421766  0.98398811  0.36877931    -0.22700
C1185       C  0.68009159  0.07128409  0.37268878    -0.05530
C1186       C  0.69327376  0.05425942  0.35537873     0.00390
C1187       C  0.72093631  0.05354702  0.35754222    -0.08180
C1188       C  0.73364198  0.07027373  0.37612592    -0.05560
C1189       C  0.72001122  0.08676718  0.39356349     0.00380
C1190       C  0.69259643  0.08553043  0.39290679    -0.08090
C1191       C  0.67550126  0.09916551  0.41318349     0.62290
H1192       H  0.65926738  0.07207541  0.37186941     0.12980
H1193       H  0.75452270  0.07135954  0.37610380     0.13000
C1194       C  0.73859104  0.03705050  0.34029382     0.62520
F1195       F  0.66256142  0.11999531  0.40122081    -0.22640
F1196       F  0.68923211  0.10859234  0.43473748    -0.19970
F1197       F  0.65756663  0.08129484  0.42272297    -0.19650
F1198       F  0.75517141  0.05357058  0.32661552    -0.19700
F1199       F  0.72554556  0.02201675  0.32205992    -0.20020
F1200       F  0.75307349  0.02030056  0.35618879    -0.22700
C1201       C  0.76655101  0.17090203  0.37651279    -0.05530
C1202       C  0.74184796  0.17643241  0.38648725     0.00390
C1203       C  0.72718687  0.19739876  0.37580889    -0.08180
C1204       C  0.73852714  0.21301712  0.35589452    -0.05560
C1205       C  0.76403029  0.20831949  0.34764555     0.00380
C1206       C  0.77868103  0.18770653  0.35875785    -0.08090
C1207       C  0.80674738  0.18311014  0.35129198     0.62290
H1208       H  0.77655161  0.15324063  0.38313766     0.12980
H1209       H  0.72738791  0.22828851  0.34596432     0.13000
C1210       C  0.69959508  0.20206099  0.38439945     0.62520
F1211       F  0.81767675  0.16252285  0.36564147    -0.22640
F1212       F  0.82080353  0.20577396  0.35653695    -0.19970
F1213       F  0.80867478  0.17710748  0.32460907    -0.19650
F1214       F  0.69880211  0.20637784  0.41146378    -0.19700
F1215       F  0.68484490  0.18008675  0.37835261    -0.20020
F1216       F  0.68882053  0.22379433  0.37174480    -0.22700
C1217       C  0.64564503  0.05441618  0.27012947    -0.05530
C1218       C  0.62143356  0.06528614  0.27688829     0.00390
C1219       C  0.61505675  0.06598277  0.30418108    -0.08180
C1220       C  0.63329894  0.05700659  0.32341567    -0.05560
C1221       C  0.65871644  0.04926122  0.31667591     0.00380
C1222       C  0.66520918  0.04984423  0.28923563    -0.08090
C1223       C  0.69300382  0.04991666  0.27980866     0.62290
H1224       H  0.65077021  0.05437404  0.24930150     0.12980
H1225       H  0.62804773  0.05715510  0.34403661     0.13000
C1226       C  0.58908954  0.07665810  0.31273271     0.62520
F1227       F  0.69520710  0.06111613  0.25481105    -0.22640
F1228       F  0.70259724  0.02451516  0.27839260    -0.19970
F1229       F  0.70793940  0.06497970  0.29674372    -0.19650
F1230       F  0.56977088  0.06269856  0.30001292    -0.19700
F1231       F  0.58705487  0.10316403  0.30606586    -0.20020
F1232       F  0.58550193  0.07422960  0.33982723    -0.22700
C1233       C  0.65244851  0.16214641  0.24841995    -0.05530
C1234       C  0.65046646  0.14123449  0.23049482     0.00390
C1235       C  0.67157168  0.13295021  0.21497722    -0.08180
C1236       C  0.69506292  0.14558577  0.21889729    -0.05560
C1237       C  0.69734707  0.16559136  0.23782902     0.00380
C1238       C  0.67588036  0.17478152  0.25233411    -0.08090
C1239       C  0.67764768  0.19814083  0.27124268     0.62290
H1240       H  0.63575829  0.16754777  0.26016159     0.12980
H1241       H  0.71176027  0.14018035  0.20717503     0.13000
C1242       C  0.66918897  0.11076077  0.19481890     0.62520
F1243       F  0.65414929  0.20376388  0.28297612    -0.22640
F1244       F  0.68546769  0.22043398  0.25750964    -0.19970
F1245       F  0.69524120  0.19262817  0.29116870    -0.19650
F1246       F  0.65050294  0.11730712  0.17631265    -0.19700
F1247       F  0.66234437  0.08744212  0.20734038    -0.20020
F1248       F  0.69212109  0.10641285  0.18148196    -0.22700
C1249       C  0.80296460  0.33142189  0.09306969    -0.05530
C1250       C  0.78644446  0.33038461  0.11504876     0.00390
C1251       C  0.77241210  0.35288181  0.12325117    -0.08180
C1252       C  0.77606573  0.37624595  0.10944976    -0.05560
C1253       C  0.79092706  0.37704936  0.08639401     0.00380
C1254       C  0.80500409  0.35475329  0.07800770    -0.08090
C1255       C  0.82244032  0.35621293  0.05407719     0.62290
H1256       H  0.81416915  0.31403112  0.08796997     0.12980
H1257       H  0.76659386  0.39417778  0.11600570     0.13000
C1258       C  0.75383453  0.35243517  0.14658927     0.62520
F1259       F  0.83511485  0.33245769  0.04970355    -0.22640
F1260       F  0.84072847  0.37572313  0.05804882    -0.19970
F1261       F  0.80804987  0.36232837  0.03175958    -0.19650
F1262       F  0.76726413  0.34781341  0.16974749    -0.19700
F1263       F  0.73564946  0.33276637  0.14296662    -0.20020
F1264       F  0.74078017  0.37621100  0.14946963    -0.22700
C1265       C  0.67343631  0.25845505  0.12874998    -0.05530
C1266       C  0.67640359  0.26556485  0.15501302     0.00390
C1267       C  0.65690618  0.27969504  0.16861524    -0.08180
C1268       C  0.63472107  0.28702744  0.15444878    -0.05560
C1269       C  0.63157922  0.27964983  0.12791354     0.00380
C1270       C  0.65081336  0.26382543  0.11513191    -0.08090
C1271       C  0.64937858  0.25064856  0.08809842     0.62290
H1272       H  0.68865797  0.24721533  0.11910494     0.12980
H1273       H  0.61961937  0.29845359  0.16391387     0.13000
C1274       C  0.65989276  0.28774201  0.19742434     0.62520
F1275       F  0.65437720  0.22383069  0.09089758    -0.22640
F1276       F  0.66804666  0.26139063  0.07179566    -0.19970
F1277       F  0.62596407  0.25282360  0.07585109    -0.19650
F1278       F  0.68099203  0.30417760  0.19999824    -0.19700
F1279       F  0.66330494  0.26554302  0.21315076    -0.20020
F1280       F  0.63843681  0.30125254  0.20662483    -0.22700
C1281       C  0.86778390  0.30012438  0.36258280    -0.05530
C1282       C  0.88559624  0.28097283  0.37093103     0.00390
C1283       C  0.89468945  0.26115363  0.35300760    -0.08180
C1284       C  0.88490585  0.26126178  0.32741874    -0.05560
C1285       C  0.86752068  0.28046432  0.31918244     0.00380
C1286       C  0.85816433  0.29995333  0.33671499    -0.08090
C1287       C  0.83734999  0.31948097  0.32836597     0.62290
H1288       H  0.86152811  0.31512823  0.37652760     0.12980
H1289       H  0.89062175  0.24583516  0.31360758     0.13000
C1290       C  0.91414108  0.23912984  0.35868421     0.62520
F1291       F  0.83118036  0.33691380  0.34856897    -0.22640
F1292       F  0.81521950  0.30586380  0.32147211    -0.19970
F1293       F  0.84569179  0.33406974  0.30680571    -0.19650
F1294       F  0.92778289  0.24204113  0.38182832    -0.19700
F1295       F  0.93208229  0.23807544  0.33839367    -0.20020
F1296       F  0.90126759  0.21518849  0.35956791    -0.22700
C1297       C  0.89178504  0.38873784  0.23929442    -0.05530
C1298       C  0.87830881  0.40684393  0.25548161     0.00390
C1299       C  0.85101611  0.40718965  0.25503907    -0.08180
C1300       C  0.83826722  0.38841590  0.23928995    -0.05560
C1301       C  0.85211824  0.37034574  0.22372179     0.00380
C1302       C  0.87909889  0.37097990  0.22286722    -0.08090
C1303       C  0.89422089  0.35270064  0.20462131     0.62290
H1304       H  0.91255670  0.38940060  0.23860839     0.12980
H1305       H  0.81740870  0.38702740  0.24007413     0.13000
C1306       C  0.83460093  0.42635343  0.27086153     0.62520
F1307       F  0.92020570  0.35880006  0.20425540    -0.22640
F1308       F  0.88483831  0.35509798  0.17900995    -0.19970
F1309       F  0.89172044  0.32669198  0.21283672    -0.19650
F1310       F  0.82055375  0.44206335  0.25354676    -0.19700
F1311       F  0.84895882  0.44261529  0.28721903    -0.20020
F1312       F  0.81766488  0.41222835  0.28660114    -0.22700
C1313       C  0.68739500  0.38891770  0.04312149    -0.05530
C1314       C  0.68141581  0.40035979  0.01841826     0.00390
C1315       C  0.69063145  0.42696678  0.01460823    -0.08180
C1316       C  0.71173850  0.43647293  0.02967947    -0.05560
C1317       C  0.72094620  0.42258755  0.05169133     0.00380
C1318       C  0.70586797  0.40048187  0.06039075    -0.08090
C1319       C  0.70953495  0.38794641  0.08733643     0.62290
H1320       H  0.67910798  0.37011471  0.04856239     0.12980
H1321       H  0.72131270  0.45461703  0.02381919     0.13000
C1322       C  0.67822984  0.44664215  0.99590551     0.62520
F1323       F  0.68572770  0.38315201  0.09869852    -0.22640
F1324       F  0.72290968  0.40458125  0.10414486    -0.19970
F1325       F  0.72256015  0.36415776  0.08480032    -0.19650
F1326       F  0.65560963  0.43717182  0.98519450    -0.19700
F1327       F  0.69520370  0.45318103  0.97586563    -0.20020
F1328       F  0.67221955  0.46943957  0.00980779    -0.22700
C1329       C  0.61505143  0.35838419  0.02654737    -0.05530
C1330       C  0.64059049  0.35117800  0.01971697     0.00390
C1331       C  0.64889590  0.32550780  0.02836094    -0.08180
C1332       C  0.63111833  0.30749630  0.03920941    -0.05560
C1333       C  0.60612703  0.31480647  0.04677739     0.00380
C1334       C  0.59828655  0.34118105  0.04094892    -0.08090
C1335       C  0.57212169  0.35087645  0.05002040     0.62290
H1336       H  0.60812430  0.37758758  0.02026534     0.12980
H1337       H  0.63796843  0.28808412  0.04479220     0.13000
C1338       C  0.67664922  0.31626755  0.02847897     0.62520
F1339       F  0.56709246  0.37640113  0.04135201    -0.22640
F1340       F  0.57104158  0.35069426  0.07743295    -0.19970
F1341       F  0.55318496  0.33435052  0.04011050    -0.19650
F1342       F  0.68464814  0.31266857  0.05443506    -0.19700
F1343       F  0.69264800  0.33431609  0.01698652    -0.20020
F1344       F  0.67911594  0.29244376  0.01519870    -0.22700
C1345       C  0.99268149  0.33909413  0.38038062    -0.05530
C1346       C  0.98729475  0.33602878  0.35288120     0.00390
C1347       C  0.96973750  0.31562507  0.34554014    -0.08180
C1348       C  0.96021663  0.29866949  0.36534811    -0.05560
C1349       C  0.96272225  0.30396287  0.39270081     0.00380
C1350       C  0.97955210  0.32450433  0.40032473    -0.08090
C1351       C  0.98285552  0.33135320  0.42933001     0.62290
H1352       H  0.00643695  0.35402575  0.38626305     0.12980
H1353       H  0.94700942  0.28327082  0.35933472     0.13000
C1354       C  0.95867239  0.31084513  0.31795261     0.62520
F1355       F  0.00054441  0.35151782  0.43298056    -0.22640
F1356       F  0.99142280  0.30926058  0.44302261    -0.19970
F1357       F  0.95948392  0.33946143  0.43975432    -0.19650
F1358       F  0.96244791  0.28468371  0.31075311    -0.19700
F1359       F  0.96921702  0.32642504  0.29852960    -0.20020
F1360       F  0.93240915  0.31573094  0.31849391    -0.22700
C1361       C  0.96294277  0.41471496  0.31042818    -0.05530
C1362       C  0.96312084  0.41255517  0.28250651     0.00390
C1363       C  0.97891817  0.39245151  0.27127154    -0.08180
C1364       C  0.99149610  0.37405932  0.28836503    -0.05560
C1365       C  0.98833048  0.37413829  0.31627940     0.00380
C1366       C  0.97422312  0.39561011  0.32744289    -0.08090
C1367       C  0.97045365  0.39862780  0.35714701     0.62290
H1368       H  0.95143605  0.43048415  0.31892018     0.12980
H1369       H  0.00341355  0.35862799  0.27990751     0.13000
C1370       C  0.98283101  0.39024391  0.24155892     0.62520
F1371       F  0.95867591  0.42240831  0.36356343    -0.22640
F1372       F  0.99399273  0.39799201  0.36998692    -0.19970
F1373       F  0.95485415  0.37852747  0.36643947    -0.19650
F1374       F  0.99516724  0.41269004  0.23241972    -0.19700
F1375       F  0.95943563  0.38754593  0.22878150    -0.20020
F1376       F  0.99791633  0.36858560  0.23492653    -0.22700
C1377       C  0.07564783  0.38147845  0.27990749    -0.05530
C1378       C  0.07240031  0.40850449  0.28534234     0.00390
C1379       C  0.05449525  0.41596963  0.30506898    -0.08180
C1380       C  0.04181034  0.39616461  0.31990079    -0.05560
C1381       C  0.04488435  0.36885106  0.31471963     0.00380
C1382       C  0.06218389  0.36148013  0.29391011    -0.08090
C1383       C  0.06674024  0.33291170  0.28594767     0.62290
H1384       H  0.09007077  0.37616628  0.26534013     0.12980
H1385       H  0.02933016  0.40201074  0.33597844     0.13000
C1386       C  0.04923392  0.44499259  0.31061224     0.62520
F1387       F  0.08498195  0.33062685  0.26605695    -0.22640
F1388       F  0.04412099  0.32230911  0.27635502    -0.19970
F1389       F  0.07559293  0.31842145  0.30734517    -0.19650
F1390       F  0.04186798  0.45743345  0.28731616    -0.19700
F1391       F  0.07121400  0.45702140  0.32037295    -0.20020
F1392       F  0.02965315  0.44834577  0.32894099    -0.22700
C1393       C  0.17810284  0.42536147  0.27515026    -0.05530
C1394       C  0.16278340  0.43044481  0.29739751     0.00390
C1395       C  0.17073795  0.42120024  0.32255991    -0.08180
C1396       C  0.19296196  0.40524920  0.32402930    -0.05560
C1397       C  0.20721077  0.39861949  0.30120691     0.00380
C1398       C  0.19970298  0.40923908  0.27606826    -0.08090
C1399       C  0.21023191  0.40032524  0.24921462     0.62290
H1400       H  0.17117609  0.43175727  0.25593398     0.12980
H1401       H  0.19885583  0.39733321  0.34312032     0.13000
C1402       C  0.15667332  0.42751537  0.34808096     0.62520
F1403       F  0.20027990  0.41480615  0.22815232    -0.22640
F1404       F  0.20286660  0.37449971  0.24523032    -0.19970
F1405       F  0.23661134  0.40296678  0.24764421    -0.19650
F1406       F  0.14636202  0.40449531  0.35844713    -0.19700
F1407       F  0.13705797  0.44579334  0.34455007    -0.20020
F1408       F  0.17395230  0.43796105  0.36618744    -0.22700
C1409       C  0.05112728  0.28514807  0.36703509    -0.05530
C1410       C  0.06790978  0.29522728  0.38629733     0.00390
C1411       C  0.06998337  0.32316450  0.38865503    -0.08180
C1412       C  0.05704716  0.33980325  0.37019713    -0.05560
C1413       C  0.04211522  0.32956573  0.34919857     0.00380
C1414       C  0.03890528  0.30142410  0.34800886    -0.08090
C1415       C  0.02514475  0.28664514  0.32606272     0.62290
H1416       H  0.05016441  0.26380649  0.36465228     0.12980
H1417       H  0.05881341  0.36110745  0.37181070     0.13000
C1418       C  0.08651304  0.33514043  0.41035896     0.62520
F1419       F  0.04280680  0.27120129  0.31251106    -0.22640
F1420       F  0.01327899  0.30306281  0.30806306    -0.19970
F1421       F  0.00675921  0.27014746  0.33701447    -0.19650
F1422       F  0.11214121  0.32867015  0.40647843    -0.19700
F1423       F  0.07867975  0.32537720  0.43468067    -0.20020
F1424       F  0.08442377  0.36248022  0.41094967    -0.22700
C1425       C  0.16734223  0.29234155  0.37536715    -0.05530
C1426       C  0.15482613  0.27156363  0.36215639     0.00390
C1427       C  0.16748298  0.25685264  0.34250246    -0.08180
C1428       C  0.19355570  0.26204347  0.33816880    -0.05560
C1429       C  0.20688345  0.28096057  0.35341889     0.00380
C1430       C  0.19356774  0.29713681  0.37160437    -0.08090
C1431       C  0.20719163  0.31800197  0.38812730     0.62290
H1432       H  0.15679212  0.30343124  0.39019422     0.12980
H1433       H  0.20392184  0.25074049  0.32340845     0.13000
C1434       C  0.15343231  0.23580704  0.32664234     0.62520
F1435       F  0.19085547  0.32948552  0.40652878    -0.22640
F1436       F  0.21634611  0.33786436  0.37182247    -0.19970
F1437       F  0.22758942  0.30659921  0.40174617    -0.19650
F1438       F  0.13175659  0.24684801  0.31495047    -0.19700
F1439       F  0.14593944  0.21530344  0.34308692    -0.20020
F1440       F  0.16880266  0.22535807  0.30681038    -0.22700
C1441       C  0.25051561  0.14159548  0.33255527    -0.05530
C1442       C  0.24884526  0.15355346  0.35777477     0.00390
C1443       C  0.24256111  0.18062620  0.36009025    -0.08180
C1444       C  0.23901454  0.19484896  0.33680563    -0.05560
C1445       C  0.24454986  0.18406925  0.31167457     0.00380
C1446       C  0.24897595  0.15660900  0.30918709    -0.08090
C1447       C  0.25210562  0.14323345  0.28243018     0.62290
H1448       H  0.25436712  0.12054196  0.33137109     0.12980
H1449       H  0.23329667  0.21527090  0.33854366     0.13000
C1450       C  0.24106386  0.19537995  0.38646981     0.62520
F1451       F  0.25080645  0.11596940  0.28455281    -0.22640
F1452       F  0.27577743  0.14966006  0.27163679    -0.19970
F1453       F  0.23259181  0.15127316  0.26544255    -0.19650
F1454       F  0.26014019  0.18687042  0.40370548    -0.19700
F1455       F  0.21711260  0.19172317  0.39784089    -0.20020
F1456       F  0.24449799  0.22232318  0.38310086    -0.22700
C1457       C  0.38181638  0.17227977  0.20515638    -0.05530
C1458       C  0.37139676  0.14665575  0.20588002     0.00390
C1459       C  0.34443064  0.14316511  0.20389238    -0.08180
C1460       C  0.32867812  0.16577501  0.20391972    -0.05560
C1461       C  0.33922521  0.19130420  0.20584434     0.00380
C1462       C  0.36632365  0.19475117  0.20660973    -0.08090
C1463       C  0.37911227  0.22127874  0.21254261     0.62290
H1464       H  0.40247965  0.17463914  0.20626821     0.12980
H1465       H  0.30789558  0.16344450  0.20331375     0.13000
C1466       C  0.33147179  0.11635438  0.20188641     0.62520
F1467       F  0.40572079  0.21927145  0.21415632    -0.22640
F1468       F  0.37041558  0.23070645  0.23659659    -0.19970
F1469       F  0.37352812  0.23947396  0.19300936    -0.19650
F1470       F  0.31731218  0.11174581  0.22463998    -0.19700
F1471       F  0.34887037  0.09584005  0.19851623    -0.20020
F1472       F  0.31495406  0.11630741  0.18029326    -0.22700
C1473       C  0.39454078  0.32686489  0.15458850    -0.05530
C1474       C  0.40171111  0.30181359  0.14558407     0.00390
C1475       C  0.38420049  0.28034172  0.14678434    -0.08180
C1476       C  0.35921814  0.28544949  0.15549980    -0.05560
C1477       C  0.35121332  0.31098558  0.16278529     0.00380
C1478       C  0.36929904  0.33222950  0.16262599    -0.08090
C1479       C  0.36243358  0.36056179  0.17000934     0.62290
H1480       H  0.40844322  0.34275327  0.15279616     0.12980
H1481       H  0.34548101  0.26936622  0.15605140     0.13000
C1482       C  0.39124788  0.25236313  0.13780457     0.62520
F1483       F  0.38309397  0.37765438  0.16716181    -0.22640
F1484       F  0.35487564  0.36148686  0.19623492    -0.19970
F1485       F  0.34285213  0.36974012  0.15370986    -0.19650
F1486       F  0.41106902  0.24254697  0.15337356    -0.19700
F1487       F  0.39887671  0.25240452  0.11164872    -0.20020
F1488       F  0.37067817  0.23503896  0.13979741    -0.22700
C1489       C  0.30059632  0.41321717  0.15924361    -0.05530
C1490       C  0.28101076  0.39688692  0.14894529     0.00390
C1491       C  0.26609147  0.38114696  0.16603308    -0.08180
C1492       C  0.27025187  0.38356417  0.19331595    -0.05560
C1493       C  0.29085377  0.39832075  0.20354845     0.00380
C1494       C  0.30625138  0.41356605  0.18645301    -0.08090
C1495       C  0.32800840  0.43043043  0.19725078     0.62290
H1496       H  0.31111210  0.42600883  0.14582734     0.12980
H1497       H  0.25875275  0.37220854  0.20681529     0.13000
C1498       C  0.24737591  0.36062547  0.15521009     0.62520
F1499       F  0.33984713  0.44499745  0.17746047    -0.22640
F1500       F  0.34646076  0.41455352  0.20916412    -0.19970
F1501       F  0.31827311  0.44784082  0.21589383    -0.19650
F1502       F  0.26025396  0.34431255  0.13760113    -0.19700
F1503       F  0.22693911  0.37251677  0.14221591    -0.20020
F1504       F  0.23731966  0.34495761  0.17512051    -0.22700
C1505       C  0.39359041  0.99858954  0.31236563    -0.05530
C1506       C  0.36674084  0.99345063  0.31395086     0.00390
C1507       C  0.35669639  0.97330955  0.29706413    -0.08180
C1508       C  0.37328474  0.96071751  0.27904154    -0.05560
C1509       C  0.40029023  0.96440858  0.27825011     0.00380
C1510       C  0.41063532  0.98394467  0.29560766    -0.08090
C1511       C  0.43930348  0.98937172  0.29708219     0.62290
H1512       H  0.40130251  0.01404486  0.32491370     0.12980
H1513       H  0.36456271  0.94697740  0.26523766     0.13000
C1514       C  0.32879304  0.96387490  0.29586245     0.62520
F1515       F  0.44554780  0.00447553  0.31907402    -0.22640
F1516       F  0.44688320  0.00320857  0.27477875    -0.19970
F1517       F  0.45290542  0.96582940  0.29886944    -0.19650
F1518       F  0.32036824  0.96364198  0.26976321    -0.19700
F1519       F  0.31177176  0.97934833  0.30967104    -0.20020
F1520       F  0.32752315  0.93834803  0.30574770    -0.22700
C1521       C  0.30925114  0.99868422  0.35880625    -0.05530
C1522       C  0.33620697  0.99570359  0.35565541     0.00390
C1523       C  0.34910054  0.97868180  0.37397125    -0.08180
C1524       C  0.33434431  0.96258645  0.39120444    -0.05560
C1525       C  0.30724009  0.96333841  0.39136776     0.00380
C1526       C  0.29468293  0.98320784  0.37649151    -0.08090
C1527       C  0.26558100  0.98637734  0.37760336     0.62290
H1528       H  0.29891869  0.01120074  0.34532489     0.12980
H1529       H  0.34383511  0.94718800  0.40263977     0.13000
C1530       C  0.37820242  0.97637155  0.37505143     0.62520
F1531       F  0.25724903  0.00840701  0.36356202    -0.22640
F1532       F  0.25798141  0.98938305  0.40370554    -0.19970
F1533       F  0.25369628  0.96427568  0.36702988    -0.19650
F1534       F  0.38633611  0.96521651  0.39875835    -0.19700
F1535       F  0.38930174  0.00117440  0.37314594    -0.20020
F1536       F  0.38676706  0.96039203  0.35465441    -0.22700
C1537       C  0.33693949  0.05764608  0.37358862    -0.05530
C1538       C  0.32923830  0.05294244  0.34700577     0.00390
C1539       C  0.30390595  0.06109947  0.33949726    -0.08180
C1540       C  0.28703978  0.07105969  0.35898079    -0.05560
C1541       C  0.29522755  0.07799199  0.38467807     0.00380
C1542       C  0.32073650  0.07108205  0.39212671    -0.08090
C1543       C  0.33063612  0.07820792  0.41942018     0.62290
H1544       H  0.35605892  0.05129015  0.37951526     0.12980
H1545       H  0.26746790  0.07627213  0.35345578     0.13000
C1546       C  0.29389323  0.05922827  0.31124339     0.62520
F1547       F  0.35563448  0.06936110  0.42340014    -0.22640
F1548       F  0.31502888  0.06675855  0.43843398    -0.19970
F1549       F  0.33026087  0.10541733  0.42256703    -0.19650
F1550       F  0.28899587  0.03321717  0.30479753    -0.19700
F1551       F  0.31152731  0.07004728  0.29388648    -0.20020
F1552       F  0.27103161  0.07300595  0.30793208    -0.22700
C1553       C  0.37964527  0.07208632  0.31750244    -0.05530
C1554       C  0.36318557  0.05185934  0.30811454     0.00390
C1555       C  0.36402029  0.04639995  0.28020363    -0.08180
C1556       C  0.38213617  0.05937975  0.26408671    -0.05560
C1557       C  0.39715790  0.08052375  0.27307395     0.00380
C1558       C  0.39593077  0.08702119  0.30047307    -0.08090
C1559       C  0.41077532  0.10971244  0.31277224     0.62290
H1560       H  0.37941224  0.07678559  0.33847079     0.12980
H1561       H  0.38223256  0.05510548  0.24296877     0.13000
C1562       C  0.34499330  0.02969135  0.26485128     0.62520
F1563       F  0.42598050  0.10008867  0.33323018    -0.22640
F1564       F  0.39355371  0.12799442  0.32296733    -0.19970
F1565       F  0.42663418  0.12250153  0.29492880    -0.19650
F1566       F  0.32675829  0.01836335  0.28063453    -0.19700
F1567       F  0.35796836  0.00998218  0.25128404    -0.20020
F1568       F  0.33230475  0.04549776  0.24651139    -0.22700
C1569       C  0.37118540  0.32439278  0.03803132    -0.05530
C1570       C  0.37946473  0.34916465  0.02861532     0.00390
C1571       C  0.40604322  0.35569543  0.03213329    -0.08180
C1572       C  0.42278070  0.33747447  0.04501141    -0.05560
C1573       C  0.41441366  0.31266037  0.05422998     0.00380
C1574       C  0.38833435  0.30561446  0.04912962    -0.08090
C1575       C  0.37740892  0.27918714  0.05761112     0.62290
H1576       H  0.35111497  0.31909010  0.03566851     0.12980
H1577       H  0.44226224  0.34362575  0.04983023     0.13000
C1578       C  0.41778144  0.38206986  0.02459944     0.62520
F1579       F  0.35949420  0.27042096  0.03925656    -0.22640
F1580       F  0.36533056  0.28195753  0.08186442    -0.19970
F1581       F  0.39654067  0.26013948  0.05941708    -0.19650
F1582       F  0.40087772  0.39866612  0.01150192    -0.19700
F1583       F  0.43888874  0.37771938  0.00847402    -0.20020
F1584       F  0.42602939  0.39478877  0.04736275    -0.22700
C1585       C  0.34820764  0.40155147  0.04374370    -0.05530
C1586       C  0.33989376  0.38114685  0.02674747     0.00390
C1587       C  0.31275251  0.37681452  0.02460633    -0.08180
C1588       C  0.29546396  0.39375654  0.03819572    -0.05560
C1589       C  0.30390946  0.41305771  0.05625105     0.00380
C1590       C  0.33088583  0.41739854  0.05847659    -0.08090
C1591       C  0.34247026  0.43770005  0.07711060     0.62290
H1592       H  0.36866111  0.40488300  0.04621385     0.12980
H1593       H  0.27497002  0.38955996  0.03729612     0.13000
C1594       C  0.30068444  0.35327747  0.01072709     0.62520
F1595       F  0.35916553  0.45380379  0.06309410    -0.22640
F1596       F  0.35615170  0.42478719  0.09687585    -0.19970
F1597       F  0.32407455  0.45373739  0.08876620    -0.19650
F1598       F  0.28339062  0.34103724  0.02762787    -0.19700
F1599       F  0.31849450  0.33443635  0.00349179    -0.20020
F1600       F  0.28750868  0.36187536  0.98843842    -0.22700
C1601       C  0.06466673  0.42188097  0.69234517    -0.05530
C1602       C  0.07240082  0.41048278  0.71657790     0.00390
C1603       C  0.06478769  0.38410114  0.72180516    -0.08180
C1604       C  0.05172008  0.36947136  0.70195314    -0.05560
C1605       C  0.04410908  0.38053078  0.67738123     0.00380
C1606       C  0.05076951  0.40754824  0.67273026    -0.08090
C1607       C  0.04513285  0.42085985  0.64644426     0.62290
H1608       H  0.07157454  0.44163914  0.68802880     0.12980
H1609       H  0.04747616  0.34899548  0.70579605     0.13000
C1610       C  0.07080424  0.37144387  0.74848090     0.62520
F1611       F  0.05395810  0.44670974  0.64571109    -0.22640
F1612       F  0.01891261  0.42153952  0.64196362    -0.19970
F1613       F  0.05729479  0.40704474  0.62641338    -0.19650
F1614       F  0.05986272  0.38654395  0.76839617    -0.19700
F1615       F  0.09710291  0.37013728  0.75255799    -0.20020
F1616       F  0.06110526  0.34598843  0.75035470    -0.22700
C1617       C  0.18381097  0.42876508  0.70457218    -0.05530
C1618       C  0.16636018  0.40968263  0.71387988     0.00390
C1619       C  0.17210133  0.38241462  0.71187570    -0.08180
C1620       C  0.19504451  0.37514571  0.69949654    -0.05560
C1621       C  0.21334007  0.39409629  0.69181020     0.00380
C1622       C  0.20776878  0.42131752  0.69403835    -0.08090
C1623       C  0.22689342  0.44210175  0.68513319     0.62290
H1624       H  0.17887454  0.44952899  0.70659089     0.12980
H1625       H  0.19970222  0.35435785  0.69748777     0.13000
C1626       C  0.15528041  0.36121602  0.72457958     0.62520
F1627       F  0.21650003  0.46735127  0.68635331    -0.22640
F1628       F  0.23406888  0.43719497  0.65918824    -0.19970
F1629       F  0.24851677  0.44135680  0.70120610    -0.19650
F1630       F  0.13217571  0.35906078  0.71107779    -0.19700
F1631       F  0.15055664  0.36765543  0.75079647    -0.20020
F1632       F  0.16704643  0.33658886  0.72434135    -0.22700
C1633       C  0.05880279  0.32495880  0.65139321    -0.05530
C1634       C  0.04363620  0.34472732  0.63934169     0.00390
C1635       C  0.04207620  0.34436157  0.61088627    -0.08180
C1636       C  0.05555452  0.32456001  0.59646773    -0.05560
C1637       C  0.06985170  0.30449104  0.60899487     0.00380
C1638       C  0.07017203  0.30405621  0.63714273    -0.08090
C1639       C  0.08274491  0.28216248  0.65333869     0.62290
H1640       H  0.06098057  0.32475918  0.67265531     0.12980
H1641       H  0.05614657  0.32572588  0.57499146     0.13000
C1642       C  0.02837022  0.36493265  0.59402470     0.62520
F1643       F  0.06458059  0.27129600  0.67018112    -0.22640
F1644       F  0.10246347  0.29267832  0.66849137    -0.19970
F1645       F  0.09254598  0.26190976  0.63790475    -0.19650
F1646       F  0.04632122  0.37802941  0.57859443    -0.19700
F1647       F  0.01519521  0.38351218  0.60860450    -0.20020
F1648       F  0.01100341  0.35246325  0.57736482    -0.22700
C1649       C  0.16140880  0.28953493  0.63303192    -0.05530
C1650       C  0.16214938  0.29618167  0.60619036     0.00390
C1651       C  0.18590591  0.30169899  0.59365713    -0.08180
C1652       C  0.20864560  0.29814209  0.60827479    -0.05560
C1653       C  0.20776741  0.28990929  0.63474961     0.00380
C1654       C  0.18382880  0.28679390  0.64779984    -0.08090
C1655       C  0.18174200  0.28244683  0.67745814     0.62290
H1656       H  0.14300409  0.28525775  0.64209568     0.12980
H1657       H  0.22715996  0.30164002  0.59895546     0.13000
C1658       C  0.18825664  0.31132391  0.56533438     0.62520
F1659       F  0.15640873  0.28185323  0.68608501    -0.22640
F1660       F  0.19376870  0.30330172  0.68988330    -0.19970
F1661       F  0.19319012  0.25879592  0.68478528    -0.19650
F1662       F  0.16460612  0.31637400  0.55364264    -0.19700
F1663       F  0.20117458  0.29248554  0.55053314    -0.20020
F1664       F  0.20227661  0.33459975  0.56499917    -0.22700
C1665       C  0.35578265  0.15668841  0.80210268    -0.05530
C1666       C  0.36966966  0.15465838  0.77830892     0.00390
C1667       C  0.37005527  0.17590213  0.75991439    -0.08180
C1668       C  0.35546611  0.19826895  0.76572338    -0.05560
C1669       C  0.34058453  0.19975216  0.78870800     0.00380
C1670       C  0.34081111  0.17918913  0.80753544    -0.08090
C1671       C  0.32527747  0.18121320  0.83282519     0.62290
H1672       H  0.35658883  0.14043142  0.81613419     0.12980
H1673       H  0.35459400  0.21446337  0.75163996     0.13000
C1674       C  0.38528040  0.17516441  0.73407217     0.62520
F1675       F  0.32864740  0.15917845  0.84885521    -0.22640
F1676       F  0.29935064  0.18348158  0.82672337    -0.19970
F1677       F  0.33298307  0.20334672  0.84687849    -0.19650
F1678       F  0.37409820  0.15750426  0.71661396    -0.19700
F1679       F  0.41046572  0.16764117  0.73879695    -0.20020
F1680       F  0.38586611  0.19970117  0.72176819    -0.22700
C1681       C  0.25991926  0.14823070  0.67431644    -0.05530
C1682       C  0.26761029  0.16032686  0.65039978     0.00390
C1683       C  0.27101713  0.18793234  0.64929382    -0.08180
C1684       C  0.26379848  0.20279106  0.67130952    -0.05560
C1685       C  0.25517233  0.19103355  0.69497312     0.00380
C1686       C  0.25421415  0.16314123  0.69701439    -0.08090
C1687       C  0.24641935  0.14919416  0.72247071     0.62290
H1688       H  0.25753325  0.12692973  0.67479733     0.12980
H1689       H  0.26563797  0.22390942  0.66987799     0.13000
C1690       C  0.28230760  0.20270731  0.62578106     0.62520
F1691       F  0.24427241  0.12207795  0.71903687    -0.22640
F1692       F  0.22281925  0.15868652  0.73101601    -0.19970
F1693       F  0.26483082  0.15357781  0.74185419    -0.19650
F1694       F  0.26326928  0.21801827  0.61406523    -0.19700
F1695       F  0.29277598  0.18604087  0.60690167    -0.20020
F1696       F  0.30182585  0.21919952  0.63454997    -0.22700
C1697       C  0.31217916  0.38388803  0.92908410    -0.05530
C1698       C  0.30945355  0.41127945  0.93289220     0.00390
C1699       C  0.32262496  0.42282517  0.95460751    -0.08180
C1700       C  0.33838959  0.40663470  0.97119273    -0.05560
C1701       C  0.34264855  0.37927756  0.96636952     0.00380
C1702       C  0.32910055  0.36785013  0.94435103    -0.08090
C1703       C  0.33259611  0.33926013  0.93549233     0.62290
H1704       H  0.30212281  0.37549463  0.91227742     0.12980
H1705       H  0.34885376  0.41576499  0.98732857     0.13000
C1706       C  0.32078999  0.45235025  0.95958101     0.62520
F1707       F  0.31548701  0.33249696  0.91552932    -0.22640
F1708       F  0.32828938  0.32203557  0.95618087    -0.19970
F1709       F  0.35713834  0.33564410  0.92559005    -0.19650
F1710       F  0.29538902  0.45926218  0.96419761    -0.19700
F1711       F  0.32969728  0.46605257  0.93767613    -0.20020
F1712       F  0.33525049  0.45998079  0.98138155    -0.22700
C1713       C  0.32254557  0.44090864  0.81819554    -0.05530
C1714       C  0.30980533  0.42414807  0.83623143     0.00390
C1715       C  0.29739158  0.40110061  0.82702795    -0.08180
C1716       C  0.29584461  0.39712357  0.79981772    -0.05560
C1717       C  0.31106330  0.41152302  0.78212590     0.00380
C1718       C  0.32436507  0.43412490  0.79109713    -0.08090
C1719       C  0.33933383  0.45113102  0.77186285     0.62290
H1720       H  0.33080201  0.45921024  0.82544509     0.12980
H1721       H  0.28343362  0.38187640  0.79232765     0.13000
C1722       C  0.28647338  0.38037457  0.84586308     0.62520
F1723       F  0.34990415  0.47304332  0.78421560    -0.22640
F1724       F  0.32298745  0.45984195  0.75193005    -0.19970
F1725       F  0.35910038  0.43646750  0.76075944    -0.19650
F1726       F  0.26765446  0.39116130  0.86183752    -0.19700
F1727       F  0.30618107  0.37056851  0.86159973    -0.20020
F1728       F  0.27568058  0.35924995  0.83241291    -0.22700
C1729       C  0.42329208  0.33648668  0.95085511    -0.05530
C1730       C  0.41944458  0.30892564  0.95283164     0.00390
C1731       C  0.39795782  0.29985330  0.96744478    -0.08180
C1732       C  0.38003643  0.31840919  0.97732458    -0.05560
C1733       C  0.38216942  0.34593359  0.97269184     0.00380
C1734       C  0.40452098  0.35508226  0.95907183    -0.08090
C1735       C  0.40897868  0.38345042  0.95018773     0.62290
H1736       H  0.43924578  0.34339412  0.93881323     0.12980
H1737       H  0.36323698  0.31129741  0.98772400     0.13000
C1738       C  0.39287861  0.27040191  0.97056434     0.62520
F1739       F  0.43343851  0.39144868  0.95760779    -0.22640
F1740       F  0.39163968  0.40126499  0.96052811    -0.19970
F1741       F  0.40724661  0.38456898  0.92282175    -0.19650
F1742       F  0.41420253  0.25836055  0.98190856    -0.19700
F1743       F  0.38805756  0.25905571  0.94609215    -0.20020
F1744       F  0.37180728  0.26550756  0.98659143    -0.22700
C1745       C  0.36898155  0.28237392  0.87191292    -0.05530
C1746       C  0.39368642  0.29094236  0.86522778     0.00390
C1747       C  0.39756291  0.31125969  0.84653292    -0.08180
C1748       C  0.37588178  0.32271214  0.83475872    -0.05560
C1749       C  0.35103385  0.31427451  0.84162125     0.00380
C1750       C  0.34734518  0.29461326  0.86126404    -0.08090
C1751       C  0.32105298  0.28569629  0.87101641     0.62290
H1752       H  0.36667882  0.26737007  0.88716836     0.12980
H1753       H  0.37823788  0.33727671  0.81915099     0.13000
C1754       C  0.42447912  0.32019075  0.83895759     0.62520
F1755       F  0.32182051  0.28116647  0.89810308    -0.22640
F1756       F  0.31433088  0.26236821  0.85846856    -0.19970
F1757       F  0.30221711  0.30460674  0.86630532    -0.19650
F1758       F  0.43851104  0.29863068  0.83008264    -0.19700
F1759       F  0.43678283  0.33108689  0.86070926    -0.20020
F1760       F  0.42398097  0.33901368  0.81896475    -0.22700
C1761       C  0.38799777  0.05310763  0.68175932    -0.05530
C1762       C  0.36093581  0.04962861  0.68321330     0.00390
C1763       C  0.34805020  0.06171219  0.70475197    -0.08180
C1764       C  0.36274560  0.06975177  0.72673157    -0.05560
C1765       C  0.38945007  0.07539597  0.72506972     0.00380
C1766       C  0.40236522  0.06678208  0.70164939    -0.08090
C1767       C  0.43093287  0.07125469  0.69744449     0.62290
H1768       H  0.39778178  0.04521018  0.66455963     0.12980
H1769       H  0.35260430  0.07478906  0.74478321     0.13000
C1770       C  0.31954283  0.06909268  0.70398040     0.62520
F1771       F  0.43852405  0.06426848  0.67207634    -0.22640
F1772       F  0.44481320  0.05583304  0.71511135    -0.19970
F1773       F  0.43686522  0.09769819  0.70103672    -0.19650
F1774       F  0.30411942  0.04714136  0.70189079    -0.19700
F1775       F  0.31499130  0.08559143  0.68258279    -0.20020
F1776       F  0.31203105  0.08266476  0.72655116    -0.22700
C1777       C  0.33676180  0.06584317  0.62978706    -0.05530
C1778       C  0.32749408  0.04450609  0.64499166     0.00390
C1779       C  0.30054735  0.03817901  0.64252923    -0.08180
C1780       C  0.28437375  0.05443610  0.62652111    -0.05560
C1781       C  0.29378177  0.07639968  0.61252774     0.00380
C1782       C  0.32086364  0.08070840  0.61266216    -0.08090
C1783       C  0.33362426  0.10217298  0.59626547     0.62290
H1784       H  0.35707710  0.07079690  0.63094282     0.12980
H1785       H  0.26369500  0.05129148  0.62683321     0.13000
C1786       C  0.28687352  0.01594579  0.65698106     0.62520
F1787       F  0.35382463  0.09125864  0.58207298    -0.22640
F1788       F  0.34323556  0.12155940  0.61291557    -0.19970
F1789       F  0.31680384  0.11375854  0.57831331    -0.19650
F1790       F  0.26697912  0.02630020  0.67204532    -0.19700
F1791       F  0.30282023  0.00182986  0.67355622    -0.20020
F1792       F  0.27639774  0.99868960  0.63864295    -0.22700
C1793       C  0.21371301  0.74057210  0.65859559    -0.05530
C1794       C  0.20831189  0.71729679  0.67255844     0.00390
C1795       C  0.18875216  0.70023828  0.66334512    -0.08180
C1796       C  0.17384117  0.70831079  0.64153172    -0.05560
C1797       C  0.17671843  0.73355489  0.62993681     0.00380
C1798       C  0.19809926  0.74949138  0.63768865    -0.08090
C1799       C  0.20496260  0.77586614  0.62497300     0.62290
H1800       H  0.22949792  0.75277798  0.66542931     0.12980
H1801       H  0.15847119  0.69560164  0.63454201     0.13000
C1802       C  0.18340625  0.67390903  0.67658710     0.62520
F1803       F  0.22294602  0.78947352  0.63978706    -0.22640
F1804       F  0.18356668  0.79209073  0.62268927    -0.19970
F1805       F  0.21591987  0.77138254  0.60046884    -0.19650
F1806       F  0.17212412  0.67804519  0.70104739    -0.19700
F1807       F  0.20632963  0.66019638  0.67970648    -0.20020
F1808       F  0.16684999  0.65840189  0.66167275    -0.22700
C1809       C  0.18736967  0.67402105  0.76879738    -0.05530
C1810       C  0.16934385  0.68968734  0.78272233     0.00390
C1811       C  0.14440225  0.68037585  0.78726368    -0.08180
C1812       C  0.13715382  0.65721434  0.77440201    -0.05560
C1813       C  0.15409112  0.64292145  0.75799303     0.00380
C1814       C  0.18008813  0.65027357  0.75649680    -0.08090
C1815       C  0.19971082  0.63298932  0.74252776     0.62290
H1816       H  0.20711044  0.68046880  0.76746175     0.12980
H1817       H  0.11775433  0.65016162  0.77651735     0.13000
C1818       C  0.12549859  0.69532399  0.80474262     0.62520
F1819       F  0.22335888  0.64547355  0.74033743    -0.22640
F1820       F  0.19115677  0.62670961  0.71733728    -0.19970
F1821       F  0.20308579  0.60981342  0.75675822    -0.19650
F1822       F  0.12054550  0.72007050  0.79404416    -0.19700
F1823       F  0.13591490  0.69821450  0.82985035    -0.20020
F1824       F  0.10230098  0.68213554  0.80736137    -0.22700
C1825       C  0.31585303  0.97107944  0.60458104    -0.05530
C1826       C  0.31714444  0.94458776  0.61302884     0.00390
C1827       C  0.33788146  0.93830196  0.63076618    -0.08180
C1828       C  0.34798995  0.95814392  0.64699759    -0.05560
C1829       C  0.34488682  0.98511426  0.64088677     0.00380
C1830       C  0.33299488  0.99027742  0.61559155    -0.08090
C1831       C  0.34349160  0.01041798  0.59626228     0.62290
H1832       H  0.30379317  0.97614658  0.58774377     0.12980
H1833       H  0.36008750  0.95190606  0.66336310     0.13000
C1834       C  0.35196364  0.91186383  0.63134044     0.62520
F1835       F  0.35239287  0.99732703  0.57397224    -0.22640
F1836       F  0.36411410  0.02422034  0.60673878    -0.19970
F1837       F  0.32422196  0.02762300  0.58833363    -0.19650
F1838       F  0.37832170  0.91620654  0.63132125    -0.19700
F1839       F  0.34650190  0.89675541  0.60919056    -0.20020
F1840       F  0.34574140  0.89806221  0.65415698    -0.22700
C1841       C  0.31755357  0.84260355  0.63771784    -0.05530
C1842       C  0.29383870  0.85463863  0.63198340     0.00390
C1843       C  0.27056198  0.84418639  0.64203048    -0.08180
C1844       C  0.27193204  0.82092883  0.65673366    -0.05560
C1845       C  0.29555206  0.80892310  0.66284904     0.00380
C1846       C  0.31892962  0.82029467  0.65415435    -0.08090
C1847       C  0.34499433  0.80966476  0.66286958     0.62290
H1848       H  0.33499077  0.85124675  0.62979818     0.12980
H1849       H  0.25443009  0.81328239  0.66554992     0.13000
C1850       C  0.24398771  0.85682506  0.63889154     0.62520
F1851       F  0.36497639  0.82128906  0.64892990    -0.22640
F1852       F  0.34612119  0.78261272  0.65878927    -0.19970
F1853       F  0.34873777  0.81500392  0.68948272    -0.19650
F1854       F  0.22809369  0.83993189  0.62486824    -0.19700
F1855       F  0.24421783  0.88092578  0.62594345    -0.20020
F1856       F  0.23339659  0.86085253  0.66373940    -0.22700
C1857       C  0.39041600  0.97780803  0.72400712    -0.05530
C1858       C  0.41453617  0.97031974  0.71391145     0.00390
C1859       C  0.42032023  0.97735330  0.68737387    -0.08180
C1860       C  0.40131505  0.99022341  0.67151535    -0.05560
C1861       C  0.37601589  0.99489885  0.68075964     0.00380
C1862       C  0.37040254  0.98756739  0.70754144    -0.08090
C1863       C  0.34304351  0.98630276  0.71807885     0.62290
H1864       H  0.38620107  0.97203616  0.74420664     0.12980
H1865       H  0.40560831  0.99535924  0.65114346     0.13000
C1866       C  0.44633903  0.97028961  0.67581676     0.62520
F1867       F  0.34200921  0.97773437  0.74415450    -0.22640
F1868       F  0.32875046  0.96888618  0.70293902    -0.19970
F1869       F  0.33186190  0.01080658  0.71739799    -0.19650
F1870       F  0.44916018  0.94305903  0.67486992    -0.19700
F1871       F  0.46559119  0.98079459  0.69163112    -0.20020
F1872       F  0.44924336  0.98019863  0.65038942    -0.22700
C1873       C  0.40457431  0.85432417  0.73882812    -0.05530
C1874       C  0.39766779  0.88090637  0.74279482     0.00390
C1875       C  0.37540608  0.88746259  0.75762609    -0.08180
C1876       C  0.36032794  0.86698825  0.76727175    -0.05560
C1877       C  0.36658836  0.84044423  0.76260077     0.00380
C1878       C  0.38935670  0.83369387  0.74873114    -0.08090
C1879       C  0.39818320  0.80518495  0.74544876     0.62290
H1880       H  0.42245820  0.84997175  0.72862423     0.12980
H1881       H  0.34255504  0.87175935  0.77746209     0.13000
C1882       C  0.36722461  0.91583671  0.76327092     0.62520
F1883       F  0.42373705  0.80376898  0.73764755    -0.22640
F1884       F  0.38345179  0.79262096  0.72640377    -0.19970
F1885       F  0.39589794  0.79183650  0.76931088    -0.19650
F1886       F  0.36039613  0.92789427  0.73970356    -0.19700
F1887       F  0.38710117  0.92958991  0.77526848    -0.20020
F1888       F  0.34610126  0.91719012  0.77999339    -0.22700
C1889       C  0.31864102  0.61544248  0.95154786    -0.05530
C1890       C  0.29281308  0.62432052  0.95139491     0.00390
C1891       C  0.28750539  0.64919846  0.96340898    -0.08180
C1892       C  0.30791521  0.66495034  0.97257334    -0.05560
C1893       C  0.33332730  0.65542090  0.97500706     0.00380
C1894       C  0.33876508  0.62999268  0.96402801    -0.08090
C1895       C  0.36532097  0.61744112  0.96458108     0.62290
H1896       H  0.32331050  0.59729584  0.94112565     0.12980
H1897       H  0.30321578  0.68407950  0.98089588     0.13000
C1898       C  0.26058430  0.66098565  0.96537885     0.62520
F1899       F  0.36405248  0.59314769  0.97721594    -0.22640
F1900       F  0.38339209  0.63276310  0.97754136    -0.19970
F1901       F  0.37363797  0.61357517  0.93882560    -0.19650
F1902       F  0.25645102  0.66975648  0.99097493    -0.19700
F1903       F  0.24139037  0.64298886  0.95948680    -0.20020
F1904       F  0.25851106  0.68233000  0.94828071    -0.22700
C1905       C  0.22383951  0.67404884  0.89362439    -0.05530
C1906       C  0.24809558  0.66505383  0.88489772     0.00390
C1907       C  0.26693093  0.68406668  0.87764794    -0.08180
C1908       C  0.26149909  0.71096690  0.88181185    -0.05560
C1909       C  0.23645478  0.71966653  0.88797730     0.00380
C1910       C  0.21754114  0.70092667  0.89478299    -0.08090
C1911       C  0.19044861  0.70844818  0.90312115     0.62290
H1912       H  0.20975039  0.66008757  0.90058099     0.12980
H1913       H  0.27598811  0.72544548  0.87639010     0.13000
C1914       C  0.29249367  0.67705683  0.86462650     0.62520
F1915       F  0.18498610  0.69682422  0.92733252    -0.22640
F1916       F  0.17306584  0.69929683  0.88442522    -0.19970
F1917       F  0.18732823  0.73553200  0.90580712    -0.19650
F1918       F  0.29405217  0.65062601  0.85761446    -0.19700
F1919       F  0.31251212  0.68300031  0.88172607    -0.20020
F1920       F  0.29557948  0.69174069  0.84170767    -0.22700
C1921       C  0.41881632  0.72625150  0.95802677    -0.05530
C1922       C  0.40866713  0.72598356  0.93258994     0.00390
C1923       C  0.39009594  0.70608822  0.92649637    -0.08180
C1924       C  0.37945541  0.69009098  0.94698491    -0.05560
C1925       C  0.38651362  0.69329580  0.97381207     0.00380
C1926       C  0.40771775  0.71169229  0.97930771    -0.08090
C1927       C  0.41548631  0.72045627  0.00914569     0.62290
H1928       H  0.43301862  0.74147304  0.96158927     0.12980
H1929       H  0.36411749  0.67667233  0.94181278     0.13000
C1930       C  0.37983630  0.70228093  0.89864237     0.62520
F1931       F  0.43681890  0.73716991  0.00429023    -0.22640
F1932       F  0.43080723  0.69786679  0.01454795    -0.19970
F1933       F  0.38439157  0.73478647  0.04179509    -0.19650
F1934       F  0.39403997  0.71611916  0.88003961    -0.19700
F1935       F  0.35450248  0.71076326  0.89751393    -0.20020
F1936       F  0.38086050  0.67570466  0.89207136    -0.22700
C1937       C  0.34206077  0.80928071  0.90784813    -0.05530
C1938       C  0.36132990  0.79920213  0.89109854     0.00390
C1939       C  0.35743785  0.79837931  0.86333722    -0.08180
C1940       C  0.33504743  0.80970231  0.85318225    -0.05560
C1941       C  0.31551289  0.81954911  0.86954865     0.00380
C1942       C  0.31880839  0.81938932  0.89737835    -0.08090
C1943       C  0.29846421  0.83091353  0.91555839     0.62290
H1944       H  0.34554333  0.80943819  0.92904614     0.12980
H1945       H  0.33253030  0.81021777  0.83199805     0.13000
C1946       C  0.37612929  0.78621630  0.84338712     0.62520
F1947       F  0.30625949  0.83047979  0.94184513    -0.22640
F1948       F  0.27596494  0.81644184  0.91338869    -0.19970
F1949       F  0.29358432  0.85694230  0.90849976    -0.19650
F1950       F  0.36285411  0.77018458  0.82592033    -0.19700
F1951       F  0.39500516  0.77056972  0.85477882    -0.20020
F1952       F  0.38774286  0.80628686  0.82911068    -0.22700
C1953       C  0.65359266  0.15647501  0.79233243    -0.05530
C1954       C  0.65471564  0.12924825  0.79743655     0.00390
C1955       C  0.67784006  0.11718504  0.80615043    -0.08180
C1956       C  0.70030947  0.13216223  0.80552829    -0.05560
C1957       C  0.69958703  0.15835133  0.79685414     0.00380
C1958       C  0.67603553  0.17147622  0.79176918    -0.08090
C1959       C  0.67481095  0.20075836  0.78475420     0.62290
H1960       H  0.63545952  0.16526597  0.78611913     0.12980
H1961       H  0.71863790  0.12304923  0.81062894     0.13000
C1962       C  0.67994666  0.08870378  0.81531832     0.62520
F1963       F  0.64964532  0.20951087  0.78160979    -0.22640
F1964       F  0.68780577  0.20534588  0.76128104    -0.19970
F1965       F  0.68605080  0.21545360  0.80479608    -0.19650
F1966       F  0.69645845  0.07515015  0.79869546    -0.19700
F1967       F  0.65644399  0.07584013  0.81574170    -0.20020
F1968       F  0.69005397  0.08816837  0.84072758    -0.22700
C1969       C  0.72595143  0.18729262  0.63827470    -0.05530
C1970       C  0.74756281  0.17733236  0.62465594     0.00390
C1971       C  0.77290020  0.18387701  0.63357930    -0.08180
C1972       C  0.77530946  0.19960593  0.65600415    -0.05560
C1973       C  0.75400843  0.20647416  0.67134930     0.00380
C1974       C  0.72880029  0.20142898  0.66213368    -0.08090
C1975       C  0.70536218  0.21096787  0.67727585     0.62290
H1976       H  0.70688601  0.18208123  0.63120076     0.12980
H1977       H  0.79436087  0.20440282  0.66343310     0.13000
C1978       C  0.79756397  0.17182167  0.62227164     0.62520
F1979       F  0.68277066  0.20641908  0.66332253    -0.22640
F1980       F  0.70736047  0.23791382  0.68174295    -0.19970
F1981       F  0.70372983  0.19792353  0.70132660    -0.19650
F1982       F  0.80199472  0.18093370  0.59685236    -0.19700
F1983       F  0.79549903  0.14460963  0.62239942    -0.20020
F1984       F  0.81919978  0.17807549  0.63715160    -0.22700
C1985       C  0.98594337  0.29855894  0.61908227    -0.05530
C1986       C  0.96578755  0.30604136  0.60192039     0.00390
C1987       C  0.95889931  0.33327842  0.60186488    -0.08180
C1988       C  0.97087567  0.35103213  0.62021272    -0.05560
C1989       C  0.98723331  0.34207445  0.64103783     0.00380
C1990       C  0.99188395  0.31409298  0.64164035    -0.08090
C1991       C  0.99579095  0.29922354  0.66758608     0.62290
H1992       H  0.99103025  0.27772851  0.61918404     0.12980
H1993       H  0.96708535  0.37184575  0.61820640     0.13000
C1994       C  0.93914562  0.34335045  0.58209415     0.62520
F1995       F  0.99445837  0.27201457  0.66435708    -0.22640
F1996       F  0.97624982  0.30624071  0.68484414    -0.19970
F1997       F  0.01930416  0.30455972  0.67876721    -0.19650
F1998       F  0.91550857  0.33169639  0.58678649    -0.19700
F1999       F  0.94707668  0.33705709  0.55669141    -0.20020
F2000       F  0.93604947  0.37054452  0.58361463    -0.22700
C2001       C  0.89927134  0.23263964  0.66094186    -0.05530
C2002       C  0.90099963  0.25741355  0.64854164     0.00390
C2003       C  0.88814234  0.27997295  0.65883988    -0.08180
C2004       C  0.87522187  0.27712511  0.68263694    -0.05560
C2005       C  0.87363910  0.25255405  0.69499957     0.00380
C2006       C  0.88493928  0.22970591  0.68412666    -0.08090
C2007       C  0.88127846  0.20271141  0.69673112     0.62290
H2008       H  0.90876896  0.21571413  0.65203717     0.12980
H2009       H  0.86545226  0.29395069  0.69144265     0.13000
C2010       C  0.88674544  0.30653827  0.64445188     0.62520
F2011       F  0.89424085  0.18307763  0.68296460    -0.22640
F2012       F  0.85532363  0.19642938  0.69698089    -0.19970
F2013       F  0.89046532  0.20308744  0.72250203    -0.19650
F2014       F  0.88012139  0.30269187  0.61819049    -0.19700
F2015       F  0.91015972  0.31944570  0.64592265    -0.20020
F2016       F  0.86830742  0.32309220  0.65541634    -0.22700
C2017       C  0.98612741  0.40656442  0.71953539    -0.05530
C2018       C  0.96751045  0.42444150  0.71002067     0.00390
C2019       C  0.96105187  0.42262110  0.68267481    -0.08180
C2020       C  0.97262635  0.40262728  0.66666564    -0.05560
C2021       C  0.98764912  0.38176847  0.67755609     0.00380
C2022       C  0.99201251  0.38313407  0.70557465    -0.08090
C2023       C  0.99486546  0.35890310  0.72305792     0.62290
H2024       H  0.99010585  0.40702339  0.74069025     0.12980
H2025       H  0.96933598  0.40349148  0.64560441     0.13000
C2026       C  0.94153892  0.44086784  0.66975791     0.62520
F2027       F  0.97088138  0.35202566  0.73278586    -0.22640
F2028       F  0.01094088  0.36405197  0.74434625    -0.19970
F2029       F  0.00451146  0.33767923  0.70973663    -0.19650
F2030       F  0.93307074  0.46048050  0.68677602    -0.19700
F2031       F  0.92051070  0.42620676  0.66149683    -0.20020
F2032       F  0.95256557  0.45296016  0.64793163    -0.22700
C2033       C  0.89074893  0.37464905  0.75562655    -0.05530
C2034       C  0.90925257  0.38498950  0.77277008     0.00390
C2035       C  0.91285539  0.37447968  0.79854942    -0.08180
C2036       C  0.89675090  0.35395075  0.80657548    -0.05560
C2037       C  0.87839442  0.34340719  0.78925072     0.00380
C2038       C  0.87490738  0.35400266  0.76337115    -0.08090
C2039       C  0.85344858  0.34542895  0.74461575     0.62290
H2040       H  0.88815604  0.38378047  0.73632643     0.12980
H2041       H  0.89901592  0.34554078  0.82626801     0.13000
C2042       C  0.93316283  0.38385644  0.81814125     0.62520
F2043       F  0.85270298  0.36055506  0.72166961    -0.22640
F2044       F  0.83002569  0.34853329  0.75715895    -0.19970
F2045       F  0.85677559  0.31940190  0.73696215    -0.19650
F2046       F  0.92114990  0.39698653  0.83878100    -0.19700
F2047       F  0.95123294  0.40048634  0.80689602    -0.20020
F2048       F  0.94629194  0.36219512  0.82830849    -0.22700
C2049       C  0.60237328  0.34062732  0.94354997    -0.05530
C2050       C  0.60890070  0.31363091  0.94157953     0.00390
C2051       C  0.63134650  0.30518211  0.95560596    -0.08180
C2052       C  0.64801114  0.32400059  0.96714850    -0.05560
C2053       C  0.64093189  0.35059760  0.97090476     0.00380
C2054       C  0.61689777  0.35873283  0.95927592    -0.08090
C2055       C  0.60534546  0.38608440  0.96262877     0.62290
H2056       H  0.58585706  0.34779167  0.93241140     0.12980
H2057       H  0.66590045  0.31713322  0.97571911     0.13000
C2058       C  0.63886939  0.27630201  0.95865256     0.62520
F2059       F  0.60290631  0.39799759  0.93802525    -0.22640
F2060       F  0.61998317  0.40232445  0.97855240    -0.19970
F2061       F  0.58113450  0.38384188  0.97387419    -0.19650
F2062       F  0.66271564  0.27210433  0.94719849    -0.19700
F2063       F  0.62114838  0.25923781  0.94744483    -0.20020
F2064       F  0.64051210  0.27021249  0.98534815    -0.22700
C2065       C  0.65986060  0.24930192  0.89356754    -0.05530
C2066       C  0.65053338  0.26908006  0.87644103     0.00390
C2067       C  0.66641778  0.28108465  0.85743260    -0.08180
C2068       C  0.69184366  0.27234906  0.85615099    -0.05560
C2069       C  0.70120506  0.25275133  0.87346533     0.00380
C2070       C  0.68537254  0.24116996  0.89267184    -0.08090
C2071       C  0.69559006  0.22071844  0.91213252     0.62290
H2072       H  0.64695003  0.24050922  0.90793573     0.12980
H2073       H  0.70403814  0.27997449  0.84067650     0.13000
C2074       C  0.65746607  0.30225664  0.83793783     0.62520
F2075       F  0.67732210  0.21391037  0.93090877    -0.22640
F2076       F  0.71683451  0.23087322  0.92525418    -0.19970
F2077       F  0.70272842  0.19800255  0.89872176    -0.19650
F2078       F  0.67048861  0.32556550  0.84298634    -0.19700
F2079       F  0.63130653  0.30744547  0.83925678    -0.20020
F2080       F  0.66294196  0.29417172  0.81235251    -0.22700
C2081       C  0.73221672  0.40299358  0.95418959    -0.05530
C2082       C  0.72172550  0.41725944  0.93298385     0.00390
C2083       C  0.69442638  0.41673776  0.92972247    -0.08180
C2084       C  0.67871891  0.40310684  0.94846191    -0.05560
C2085       C  0.68931278  0.38895588  0.97004348     0.00380
C2086       C  0.71696468  0.38710758  0.97106498    -0.08090
C2087       C  0.73080242  0.36559615  0.98669284     0.62290
H2088       H  0.75305368  0.40169626  0.95515201     0.12980
H2089       H  0.65798701  0.40424301  0.94681070     0.13000
C2090       C  0.68205312  0.43123973  0.90662681     0.62520
F2091       F  0.75717572  0.36554904  0.98234948    -0.22640
F2092       F  0.72163134  0.34122995  0.97858747    -0.19970
F2093       F  0.72727135  0.36876671  0.01346994    -0.19650
F2094       F  0.68945674  0.41972291  0.88296310    -0.19700
F2095       F  0.68985287  0.45741937  0.90683504    -0.20020
F2096       F  0.65539720  0.43067542  0.90796653    -0.22700
C2097       C  0.79789482  0.36957498  0.87798150    -0.05530
C2098       C  0.77196589  0.37078610  0.86978636     0.00390
C2099       C  0.75823582  0.34722648  0.86523560    -0.08180
C2100       C  0.76994406  0.32308534  0.87241626    -0.05560
C2101       C  0.79592617  0.32173886  0.88057830     0.00380
C2102       C  0.81033119  0.34536934  0.88297801    -0.08090
C2103       C  0.83808449  0.34521092  0.89271741     0.62290
H2104       H  0.80798888  0.38791047  0.88187440     0.12980
H2105       H  0.75901888  0.30500468  0.87091136     0.13000
C2106       C  0.73226654  0.34782704  0.85108499     0.62520
F2107       F  0.84738187  0.37058061  0.89675141    -0.22640
F2108       F  0.85383126  0.33304209  0.87434121    -0.19970
F2109       F  0.83964933  0.33165398  0.91652433    -0.19650
F2110       F  0.73481554  0.36127064  0.82729837    -0.19700
F2111       F  0.71354098  0.36020052  0.86603375    -0.20020
F2112       F  0.72362945  0.32267414  0.84558289    -0.22700
C2113       C  0.06599345  0.67400799  0.69250201    -0.05530
C2114       C  0.04863605  0.66027787  0.67633676     0.00390
C2115       C  0.04548322  0.63244517  0.68164532    -0.08180
C2116       C  0.06043647  0.62016816  0.70204004    -0.05560
C2117       C  0.07698096  0.63458140  0.71869347     0.00380
C2118       C  0.07801603  0.66256053  0.71467516    -0.08090
C2119       C  0.08953565  0.68131473  0.73482874     0.62290
H2120       H  0.06888733  0.69488945  0.68890382     0.12980
H2121       H  0.05961726  0.59885355  0.70454399     0.13000
C2122       C  0.02814308  0.61388328  0.66625301     0.62520
F2123       F  0.08003789  0.70684940  0.73198220    -0.22640
F2124       F  0.11590996  0.68250945  0.73184699    -0.19970
F2125       F  0.08281297  0.67301011  0.75992852    -0.19650
F2126       F  0.04309679  0.59468756  0.65412877    -0.19700
F2127       F  0.01382692  0.62631864  0.64700206    -0.20020
F2128       F  0.01130992  0.60161513  0.68358001    -0.22700
C2129       C  0.05203212  0.72296282  0.64712140    -0.05530
C2130       C  0.04954207  0.69625359  0.63910258     0.00390
C2131       C  0.06386367  0.68814112  0.61635151    -0.08180
C2132       C  0.07967289  0.70665156  0.60308728    -0.05560
C2133       C  0.08339735  0.73252163  0.61239218     0.00380
C2134       C  0.06884209  0.74099460  0.63456309    -0.08090
C2135       C  0.07122357  0.76839365  0.64662504     0.62290
H2136       H  0.04196226  0.72957787  0.66464593     0.12980
H2137       H  0.09141930  0.69992052  0.58661665     0.13000
C2138       C  0.06471960  0.66028777  0.60537058     0.62520
F2139       F  0.04716564  0.78020481  0.64723750    -0.22640
F2140       F  0.08746664  0.78485650  0.63254021    -0.19970
F2141       F  0.08047238  0.76618318  0.67230227    -0.19650
F2142       F  0.05601191  0.66054878  0.57941259    -0.19700
F2143       F  0.05001850  0.64271544  0.61942490    -0.20020
F2144       F  0.08991889  0.65120335  0.60576786    -0.22700
C2145       C  0.73516714  0.08571066  0.64832760    -0.05530
C2146       C  0.73170555  0.08376731  0.62061570     0.00390
C2147       C  0.71405608  0.06448034  0.61124676    -0.08180
C2148       C  0.70047628  0.04843246  0.62983444    -0.05560
C2149       C  0.70269748  0.05178261  0.65767439     0.00380
C2150       C  0.71938973  0.07230160  0.66682522    -0.08090
C2151       C  0.71946142  0.08217056  0.69541612     0.62290
H2152       H  0.74854819  0.10057146  0.65536974     0.12980
H2153       H  0.68700547  0.03377568  0.62263914     0.13000
C2154       C  0.70911038  0.06132584  0.58179118     0.62520
F2155       F  0.73765688  0.10177911  0.69954134    -0.22640
F2156       F  0.72494082  0.06201962  0.71289702    -0.19970
F2157       F  0.69569074  0.09294595  0.70146190    -0.19650
F2158       F  0.73170901  0.05400428  0.56927853    -0.19700
F2159       F  0.70037385  0.08499778  0.57119455    -0.20020
F2160       F  0.69080176  0.04207807  0.57665558    -0.22700
C2161       C  0.64496359  0.04844958  0.73794188    -0.05530
C2162       C  0.62821229  0.06817352  0.72854067     0.00390
C2163       C  0.63020485  0.07563900  0.70149981    -0.08180
C2164       C  0.64920052  0.06339519  0.68517839    -0.05560
C2165       C  0.66797984  0.04575123  0.69554146     0.00380
C2166       C  0.66610104  0.03924034  0.72314591    -0.08090
C2167       C  0.68671236  0.02558589  0.73963742     0.62290
H2168       H  0.64409389  0.04350403  0.75890007     0.12980
H2169       H  0.65018067  0.06837693  0.66431278     0.13000
C2170       C  0.61280627  0.09707509  0.69035886     0.62520
F2171       F  0.69654370  0.04353607  0.75760782    -0.22640
F2172       F  0.70696155  0.01609549  0.72508321    -0.19970
F2173       F  0.67598425  0.00486011  0.75372373    -0.19650
F2174       F  0.61733964  0.12071633  0.70337713    -0.19700
F2175       F  0.58732231  0.08991521  0.69390413    -0.20020
F2176       F  0.61692751  0.10105444  0.66352588    -0.22700
C2177       C  0.63602139  0.68549902  0.03736105    -0.05530
C2178       C  0.66022913  0.69726612  0.03272953     0.00390
C2179       C  0.66320104  0.72412725  0.04160179    -0.08180
C2180       C  0.64310478  0.73662980  0.05603297    -0.05560
C2181       C  0.61946659  0.72427944  0.06118354     0.00380
C2182       C  0.61552106  0.69863056  0.05033549    -0.08090
C2183       C  0.58999377  0.68408950  0.05188489     0.62290
H2184       H  0.63275005  0.66558810  0.03053315     0.12980
H2185       H  0.64637565  0.75615560  0.06432641     0.13000
C2186       C  0.68666575  0.74119557  0.03712694     0.62520
F2187       F  0.58307950  0.67551362  0.02679977    -0.22640
F2188       F  0.57016538  0.69985418  0.06123707    -0.19970
F2189       F  0.59264696  0.66227892  0.06830910    -0.19650
F2190       F  0.67933573  0.76431438  0.02433215    -0.19700
F2191       F  0.70501178  0.72908535  0.02202896    -0.20020
F2192       F  0.69758301  0.74764870  0.06130862    -0.22700
C2193       C  0.68662046  0.64262096  0.04779555    -0.05530
C2194       C  0.69804222  0.66143675  0.03065907     0.00390
C2195       C  0.72513323  0.65799313  0.02537911    -0.08180
C2196       C  0.73865351  0.63643624  0.03666264    -0.05560
C2197       C  0.72795121  0.62029349  0.05629231     0.00380
C2198       C  0.70107416  0.62249768  0.06080870    -0.08090
C2199       C  0.68807517  0.60380928  0.08011146     0.62290
H2200       H  0.66616734  0.64382472  0.05138764     0.12980
H2201       H  0.75935389  0.63514132  0.03363581     0.13000
C2202       C  0.74227723  0.67697448  0.01033784     0.62520
F2203       F  0.66160375  0.60742342  0.08055873    -0.22640
F2204       F  0.69746257  0.60781866  0.10548239    -0.19970
F2205       F  0.69307702  0.57795821  0.07263174    -0.19650
F2206       F  0.72907828  0.69711206  0.99851101    -0.19700
F2207       F  0.75563918  0.66345164  0.99085432    -0.20020
F2208       F  0.75992152  0.68795651  0.02776661    -0.22700
C2209       C  0.65627303  0.95801925  0.72454226    -0.05530
C2210       C  0.62998065  0.96327005  0.72046999     0.00390
C2211       C  0.62326913  0.98172835  0.70040392    -0.08180
C2212       C  0.64293509  0.99390107  0.68511387    -0.05560
C2213       C  0.66952776  0.98870109  0.68911773     0.00380
C2214       C  0.67603348  0.96923809  0.70876359    -0.08090
C2215       C  0.70296680  0.95876225  0.71444678     0.62290
H2216       H  0.66145236  0.94378883  0.73973715     0.12980
H2217       H  0.63763348  0.00795602  0.66979751     0.13000
C2218       C  0.59519139  0.98855214  0.69541108     0.62520
F2219       F  0.70855791  0.96157561  0.74114926    -0.22640
F2220       F  0.72193585  0.97133546  0.70045160    -0.19970
F2221       F  0.70392793  0.93214091  0.70812753    -0.19650
F2222       F  0.58403418  0.99699235  0.71883420    -0.19700
F2223       F  0.58214945  0.96650298  0.68629248    -0.20020
F2224       F  0.59245464  0.00855174  0.67679106    -0.22700
C2225       C  0.59715210  0.85563586  0.69415558    -0.05530
C2226       C  0.61030992  0.87219599  0.71204135     0.00390
C2227       C  0.63363701  0.86354542  0.72397529    -0.08180
C2228       C  0.64182405  0.83792868  0.71911210    -0.05560
C2229       C  0.62953777  0.82160590  0.70084432     0.00380
C2230       C  0.60711804  0.83039658  0.68763416    -0.08090
C2231       C  0.59389140  0.81291796  0.66751119     0.62290
H2232       H  0.57927681  0.86259726  0.68542054     0.12980
H2233       H  0.65884693  0.83088105  0.72890909     0.13000
C2234       C  0.65146111  0.88160833  0.73976829     0.62520
F2235       F  0.57203481  0.82487401  0.65714133    -0.22640
F2236       F  0.58677889  0.78935479  0.67942296    -0.19970
F2237       F  0.61065513  0.80758936  0.64688740    -0.19650
F2238       F  0.63855700  0.89447389  0.75985294    -0.19700
F2239       F  0.66185069  0.89986760  0.72253304    -0.20020
F2240       F  0.67176127  0.86795548  0.75140732    -0.22700
C2241       C  0.74620744  0.97678381  0.63190938    -0.05530
C2242       C  0.73262586  0.96063180  0.61424974     0.00390
C2243       C  0.70533103  0.96376837  0.61312305    -0.08180
C2244       C  0.69253306  0.97842470  0.63297403    -0.05560
C2245       C  0.70582757  0.99252023  0.65274584     0.00380
C2246       C  0.73358165  0.99300998  0.65084641    -0.08090
C2247       C  0.75160268  0.00847703  0.66868207     0.62290
H2248       H  0.76706159  0.97517432  0.63235499     0.12980
H2249       H  0.67162860  0.97910682  0.63277493     0.13000
C2250       C  0.68878722  0.95172263  0.59144063     0.62520
F2251       F  0.76964542  0.99154253  0.67987269    -0.22640
F2252       F  0.73918256  0.02097200  0.68898300    -0.19970
F2253       F  0.76438482  0.02729003  0.65372881    -0.19650
F2254       F  0.67310016  0.93237685  0.60217979    -0.19700
F2255       F  0.70333166  0.94075285  0.57126101    -0.20020
F2256       F  0.67339471  0.97125655  0.58035237    -0.22700
C2257       C  0.72112716  0.84575541  0.59526006    -0.05530
C2258       C  0.73367074  0.86314032  0.61273110     0.00390
C2259       C  0.74059506  0.85468361  0.63851440    -0.08180
C2260       C  0.73821588  0.82782565  0.64445948    -0.05560
C2261       C  0.72689372  0.81007010  0.62668468     0.00380
C2262       C  0.71672823  0.81921546  0.60241823    -0.08090
C2263       C  0.70217108  0.80075341  0.58419378     0.62290
H2264       H  0.71566554  0.85288694  0.57576042     0.12980
H2265       H  0.74563385  0.82034087  0.66291691     0.13000
C2266       C  0.75049230  0.87376561  0.65956527     0.62520
F2267       F  0.69354767  0.81364661  0.56159545    -0.22640
F2268       F  0.68097779  0.79070941  0.59741114    -0.19970
F2269       F  0.71804264  0.78005882  0.57664941    -0.19650
F2270       F  0.73147550  0.89204220  0.66548939    -0.19700
F2271       F  0.77200319  0.88699833  0.65068274    -0.20020
F2272       F  0.75716265  0.86087737  0.68284001    -0.22700
C2273       C  0.97431661  0.72753079  0.60668217    -0.05530
C2274       C  0.97019589  0.75096764  0.62106026     0.00390
C2275       C  0.98009309  0.75215978  0.64736970    -0.08180
C2276       C  0.98999314  0.72913088  0.65943578    -0.05560
C2277       C  0.99414619  0.70542882  0.64548033     0.00380
C2278       C  0.98661503  0.70497848  0.61810462    -0.08090
C2279       C  0.98954853  0.68124728  0.60007639     0.62290
H2280       H  0.96654202  0.72623819  0.58674074     0.12980
H2281       H  0.99516977  0.73021185  0.68011101     0.13000
C2282       C  0.97932489  0.77719087  0.66406695     0.62520
F2283       F  0.96550244  0.67355300  0.59102194    -0.22640
F2284       F  0.00078259  0.65987239  0.61239238    -0.19970
F2285       F  0.00460652  0.68815955  0.57855331    -0.19650
F2286       F  0.96056037  0.77477269  0.68335993    -0.19700
F2287       F  0.97437595  0.79958137  0.64901219    -0.20020
F2288       F  0.00289344  0.78077402  0.67642664    -0.22700
C2289       C  0.86852209  0.76668353  0.63639208    -0.05530
C2290       C  0.88554663  0.78687565  0.64346401     0.00390
C2291       C  0.88047346  0.80335744  0.66550681    -0.08180
C2292       C  0.85744909  0.79939700  0.67945916    -0.05560
C2293       C  0.84007779  0.77958833  0.67185301     0.00380
C2294       C  0.84590724  0.76234550  0.65053803    -0.08090
C2295       C  0.82898362  0.73876619  0.64338119     0.62290
H2296       H  0.87327227  0.75419571  0.61960839     0.12980
H2297       H  0.85298967  0.81181409  0.69638591     0.13000
C2298       C  0.89853608  0.82483559  0.67536276     0.62520
F2299       F  0.84051639  0.72258351  0.62466872    -0.22640
F2300       F  0.80578075  0.74747215  0.63296562    -0.19970
F2301       F  0.82441465  0.72356677  0.66574761    -0.19650
F2302       F  0.92065563  0.82731832  0.66033678    -0.19700
F2303       F  0.90582828  0.81911950  0.70115989    -0.20020
F2304       F  0.88574857  0.84890341  0.67502308    -0.22700
C2305       C  0.97282319  0.65102569  0.67339204    -0.05530
C2306       C  0.99242699  0.66836821  0.68175562     0.00390
C2307       C  0.99700176  0.67039138  0.70963047    -0.08180
C2308       C  0.98397596  0.65324787  0.72717080    -0.05560
C2309       C  0.96395410  0.63642067  0.71896869     0.00380
C2310       C  0.95860890  0.63507738  0.69127134    -0.08090
C2311       C  0.93788495  0.61771634  0.67925099     0.62290
H2312       H  0.96851537  0.64979956  0.65237926     0.12980
H2313       H  0.98708240  0.65565724  0.74833732     0.13000
C2314       C  0.01237813  0.69213167  0.72300741     0.62520
F2315       F  0.91919979  0.63353281  0.66761723    -0.22640
F2316       F  0.92623801  0.60137744  0.69753445    -0.19970
F2317       F  0.94878022  0.60181800  0.65992550    -0.19650
F2318       F  0.99565723  0.70791099  0.73740493    -0.19700
F2319       F  0.02543524  0.70820810  0.70566289    -0.20020
F2320       F  0.02995305  0.68097727  0.74039885    -0.22700
C2321       C  0.88200898  0.68173172  0.79101173    -0.05530
C2322       C  0.89019390  0.67405121  0.76561084     0.00390
C2323       C  0.87479670  0.67976043  0.74303248    -0.08180
C2324       C  0.85119564  0.69223132  0.74707587    -0.05560
C2325       C  0.84200213  0.69785595  0.77258473     0.00380
C2326       C  0.85748543  0.69265999  0.79503735    -0.08090
C2327       C  0.84759202  0.69658529  0.82293001     0.62290
H2328       H  0.89388571  0.67634553  0.80790954     0.12980
H2329       H  0.83899350  0.69671460  0.73016330     0.13000
C2330       C  0.88201934  0.67129373  0.71495452     0.62520
F2331       F  0.86675444  0.69276577  0.84174577    -0.22640
F2332       F  0.82837958  0.67828964  0.82754762    -0.19970
F2333       F  0.83791495  0.72194947  0.82593955    -0.19650
F2334       F  0.88607108  0.64423822  0.71405097    -0.19700
F2335       F  0.90403620  0.68435498  0.70690161    -0.20020
F2336       F  0.86281055  0.67720992  0.69674165    -0.22700
C2337       C  0.72690539  0.64983992  0.94032648    -0.05530
C2338       C  0.72556085  0.62243858  0.94567466     0.00390
C2339       C  0.70825908  0.61400216  0.96558621    -0.08180
C2340       C  0.69285800  0.63296079  0.97902121    -0.05560
C2341       C  0.69295930  0.66027852  0.97250054     0.00380
C2342       C  0.70958209  0.66848418  0.95150672    -0.08090
C2343       C  0.70791572  0.69588611  0.93887752     0.62290
H2344       H  0.73943625  0.65592254  0.92433095     0.12980
H2345       H  0.67983554  0.62631888  0.99433418     0.13000
C2346       C  0.70568444  0.58482105  0.97196717     0.62520
F2347       F  0.72610310  0.69929641  0.91915694    -0.22640
F2348       F  0.71193391  0.71561758  0.95722176    -0.19970
F2349       F  0.68391926  0.69912986  0.92735210    -0.19650
F2350       F  0.72962210  0.57462891  0.97862307    -0.19700
F2351       F  0.69622950  0.57143289  0.95010901    -0.20020
F2352       F  0.68911358  0.58047142  0.99301745    -0.22700
C2353       C  0.74631197  0.65335848  0.86890886    -0.05530
C2354       C  0.72444369  0.63727316  0.86477406     0.00390
C2355       C  0.70101876  0.64899766  0.85650397    -0.08180
C2356       C  0.70102607  0.67601095  0.85043566    -0.05560
C2357       C  0.72379546  0.69116971  0.85164660     0.00380
C2358       C  0.74588821  0.68043520  0.86372548    -0.08090
C2359       C  0.76897119  0.69691839  0.87177419     0.62290
H2360       H  0.76357482  0.64495430  0.87772211     0.12980
H2361       H  0.68352717  0.68457837  0.84225708     0.13000
C2362       C  0.67585038  0.63409917  0.85297009     0.62520
F2363       F  0.77656871  0.69028509  0.89728490    -0.22640
F2364       F  0.76349816  0.72375480  0.87144554    -0.19970
F2365       F  0.78908842  0.69187015  0.85472584    -0.19650
F2366       F  0.65805102  0.64353881  0.87106216    -0.19700
F2367       F  0.67838468  0.60705704  0.85642659    -0.20020
F2368       F  0.66646970  0.63843261  0.82761059    -0.22700
C2369       C  0.61174352  0.70044648  0.95739155    -0.05530
C2370       C  0.61596845  0.72734209  0.95088835     0.00390
C2371       C  0.64012340  0.73849135  0.95850933    -0.08180
C2372       C  0.65776801  0.72300727  0.97336820    -0.05560
C2373       C  0.65509549  0.69540535  0.97609122     0.00380
C2374       C  0.63156157  0.68385429  0.96752617    -0.08090
C2375       C  0.62802342  0.65400238  0.96649687     0.62290
H2376       H  0.59391122  0.69159680  0.95058377     0.12980
H2377       H  0.67522774  0.73221697  0.98051583     0.13000
C2378       C  0.64996487  0.76528553  0.94947034     0.62520
F2379       F  0.60304394  0.64711526  0.95970710    -0.22640
F2380       F  0.63347126  0.64251826  0.99068511    -0.19970
F2381       F  0.64436562  0.64354658  0.94757354    -0.19650
F2382       F  0.63363151  0.77799851  0.93211830    -0.19700
F2383       F  0.67332581  0.76195236  0.93664142    -0.20020
F2384       F  0.65368317  0.78136386  0.97131142    -0.22700
C2385       C  0.62867583  0.74043206  0.85253237    -0.05530
C2386       C  0.60625740  0.72567697  0.85619803     0.00390
C2387       C  0.59372647  0.71374579  0.83427968    -0.08180
C2388       C  0.60521999  0.71609772  0.80921120    -0.05560
C2389       C  0.62697890  0.73206578  0.80567879     0.00380
C2390       C  0.63745877  0.74618143  0.82733907    -0.08090
C2391       C  0.65541265  0.76968793  0.82494954     0.62290
H2392       H  0.63705185  0.75099347  0.86923353     0.12980
H2393       H  0.59717147  0.70558275  0.79238915     0.13000
C2394       C  0.56839719  0.69900424  0.83621784     0.62520
F2395       F  0.64416899  0.79139464  0.83710359    -0.22640
F2396       F  0.66000583  0.77652747  0.79897773    -0.19970
F2397       F  0.67848610  0.76439626  0.83764810    -0.19650
F2398       F  0.54977664  0.71263150  0.82196291    -0.19700
F2399       F  0.55997534  0.69617112  0.86206510    -0.20020
F2400       F  0.57122972  0.67398028  0.82545398    -0.22700
C2401       C  0.54478817  0.90510796  0.82562909    -0.05530
C2402       C  0.55115255  0.87812825  0.83096118     0.00390
C2403       C  0.57570507  0.86962140  0.82061872    -0.08180
C2404       C  0.58828436  0.88552720  0.80139121    -0.05560
C2405       C  0.57778394  0.90911509  0.79111179     0.00380
C2406       C  0.55630807  0.91988825  0.80459347    -0.08090
C2407       C  0.54491761  0.94620301  0.79601740     0.62290
H2408       H  0.52905567  0.91392081  0.83650166     0.12980
H2409       H  0.60568843  0.87832852  0.79210340     0.13000
C2410       C  0.58971274  0.84439162  0.82903907     0.62520
F2411       F  0.52353033  0.95297478  0.81095268    -0.22640
F2412       F  0.53745255  0.94498559  0.76969144    -0.19970
F2413       F  0.56316173  0.96588922  0.79899484    -0.19650
F2414       F  0.57538405  0.82242317  0.82277215    -0.19700
F2415       F  0.59487945  0.84510335  0.85585661    -0.20020
F2416       F  0.61327697  0.84140155  0.81648538    -0.22700
C2417       C  0.55260505  0.84169419  0.88675098    -0.05530
C2418       C  0.53993157  0.83668250  0.86241689     0.00390
C2419       C  0.53322050  0.80988529  0.85694003    -0.08180
C2420       C  0.53703215  0.79054933  0.87662988    -0.05560
C2421       C  0.55545977  0.79400169  0.89702524     0.00380
C2422       C  0.56197983  0.82072305  0.90330349    -0.08090
C2423       C  0.57844271  0.82733104  0.92712809     0.62290
H2424       H  0.55659641  0.86212750  0.89173093     0.12980
H2425       H  0.53024355  0.77065356  0.87249891     0.13000
C2426       C  0.52499000  0.79964841  0.82985746     0.62520
F2427       F  0.58132139  0.85439489  0.93031552    -0.22640
F2428       F  0.60264363  0.81646407  0.92410210    -0.19970
F2429       F  0.56702211  0.81744254  0.94981071    -0.19650
F2430       F  0.54213503  0.78022866  0.82177850    -0.19700
F2431       F  0.52497488  0.81907835  0.81060511    -0.20020
F2432       F  0.50083558  0.78833047  0.83136177    -0.22700
C2433       C  0.48687612  0.84115241  0.88356083    -0.05530
C2434       C  0.48476703  0.84434300  0.85563455     0.00390
C2435       C  0.46531474  0.82892082  0.84258411    -0.08180
C2436       C  0.45142052  0.80966156  0.85725961    -0.05560
C2437       C  0.45411785  0.80608678  0.88480258     0.00380
C2438       C  0.47208867  0.82240772  0.89819981    -0.08090
C2439       C  0.47528076  0.82017171  0.92799022     0.62290
H2440       H  0.50033784  0.85373284  0.89400528     0.12980
H2441       H  0.43676235  0.79801921  0.84747211     0.13000
C2442       C  0.45786084  0.83281430  0.81359882     0.62520
F2443       F  0.49403599  0.83718660  0.93750590    -0.22640
F2444       F  0.48241195  0.79456664  0.93452999    -0.19970
F2445       F  0.45223917  0.82622627  0.94037480    -0.19650
F2446       F  0.44002200  0.81430060  0.80508016    -0.19700
F2447       F  0.47901749  0.83045601  0.79733033    -0.20020
F2448       F  0.44673589  0.85745869  0.81040174    -0.22700
C2449       C  0.50201409  0.88111232  0.79434803    -0.05530
C2450       C  0.49364236  0.88267660  0.82088652     0.00390
C2451       C  0.47662765  0.90383587  0.82767387    -0.08180
C2452       C  0.46694047  0.92080045  0.80735780    -0.05560
C2453       C  0.47382590  0.91767266  0.78050245     0.00380
C2454       C  0.49301804  0.89851333  0.77444753    -0.08090
C2455       C  0.50208957  0.89366799  0.74632559     0.62290
H2456       H  0.51561458  0.86573445  0.78893061     0.12980
H2457       H  0.45176143  0.93482765  0.81193900     0.13000
C2458       C  0.46801909  0.90809029  0.85608873     0.62520
F2459       F  0.52862852  0.89186867  0.74599630    -0.22640
F2460       F  0.49496597  0.91388787  0.72924057    -0.19970
F2461       F  0.49186993  0.87009481  0.73719524    -0.19650
F2462       F  0.48922400  0.90850089  0.87278424    -0.19700
F2463       F  0.45163011  0.88795031  0.86371673    -0.20020
F2464       F  0.45498991  0.93187061  0.85902087    -0.22700
C2465       C  0.83354695  0.56961192  0.86878693    -0.05530
C2466       C  0.82897117  0.55091953  0.84847657     0.00390
C2467       C  0.80291951  0.54365964  0.84344438    -0.08180
C2468       C  0.78342404  0.55248153  0.86077152    -0.05560
C2469       C  0.78766163  0.57148947  0.88083667     0.00380
C2470       C  0.81341314  0.58044805  0.88465472    -0.08090
C2471       C  0.81983011  0.60145416  0.90508204     0.62290
H2472       H  0.85323188  0.57567522  0.87229255     0.12980
H2473       H  0.76379667  0.54608455  0.85698151     0.13000
C2474       C  0.79398064  0.52770095  0.81963328     0.62520
F2475       F  0.84538692  0.60919967  0.90363418    -0.22640
F2476       F  0.81559648  0.59151899  0.93023636    -0.19970
F2477       F  0.80467576  0.62367895  0.90109734    -0.19650
F2478       F  0.78307666  0.50422150  0.82814452    -0.19700
F2479       F  0.81347749  0.52197816  0.80201937    -0.20020
F2480       F  0.77544290  0.54206708  0.80599059    -0.22700
C2481       C  0.86104899  0.56386244  0.79370669    -0.05530
C2482       C  0.86975972  0.55577840  0.81885834     0.00390
C2483       C  0.89587539  0.56142175  0.82578146    -0.08180
C2484       C  0.91212373  0.57412431  0.80712689    -0.05560
C2485       C  0.90345229  0.58172150  0.78179782     0.00380
C2486       C  0.87755506  0.57547996  0.77480182    -0.08090
C2487       C  0.86593669  0.58279009  0.74814576     0.62290
H2488       H  0.84122588  0.55997838  0.78820297     0.12980
H2489       H  0.93127612  0.58018748  0.81327871     0.13000
C2490       C  0.90733996  0.55646800  0.85299715     0.62520
F2491       F  0.85182061  0.56173206  0.73836691    -0.22640
F2492       F  0.88455948  0.58891086  0.72959364    -0.19970
F2493       F  0.84967834  0.60431631  0.75120002    -0.19650
F2494       F  0.92912425  0.54086392  0.85049975    -0.19700
F2495       F  0.89052802  0.54423554  0.87023201    -0.20020
F2496       F  0.91444694  0.58043598  0.86404860    -0.22700
C2497       C  0.87697813  0.50379442  0.79008331    -0.05530
C2498       C  0.87858240  0.50044957  0.81794100     0.00390
C2499       C  0.90125981  0.48816583  0.82824529    -0.08180
C2500       C  0.92044721  0.47912402  0.81040020    -0.05560
C2501       C  0.91709849  0.47955939  0.78253489     0.00380
C2502       C  0.89543681  0.49329176  0.77233508    -0.08090
C2503       C  0.89081652  0.49493397  0.74263616     0.62290
H2504       H  0.85983327  0.51299303  0.78204908     0.12980
H2505       H  0.93661882  0.46796036  0.81835476     0.13000
C2506       C  0.90534501  0.48133673  0.85731063     0.62520
F2507       F  0.86927343  0.50997444  0.73652105    -0.22640
F2508       F  0.88714514  0.46985173  0.73230561    -0.19970
F2509       F  0.91192259  0.50647459  0.73058494    -0.19650
F2510       F  0.90455829  0.45410961  0.86024961    -0.19700
F2511       F  0.88712285  0.49227123  0.87390629    -0.20020
F2512       F  0.92932866  0.49010420  0.86545913    -0.22700
C2513       C  0.82647251  0.49823780  0.87426152    -0.05530
C2514       C  0.83809562  0.49104256  0.84974328     0.00390
C2515       C  0.83156736  0.46531543  0.84023269    -0.08180
C2516       C  0.81531832  0.44915206  0.85559870    -0.05560
C2517       C  0.79796448  0.45897919  0.87498428     0.00380
C2518       C  0.80504371  0.48428730  0.88556975    -0.08090
C2519       C  0.79121927  0.49677779  0.90884276     0.62290
H2520       H  0.83354066  0.51574907  0.88409119     0.12980
H2521       H  0.81607041  0.42823707  0.85149450     0.13000
C2522       C  0.83972802  0.45424078  0.81348022     0.62520
F2523       F  0.80110001  0.52143510  0.91514910    -0.22640
F2524       F  0.79410969  0.48088432  0.93101191    -0.19970
F2525       F  0.76542522  0.50024497  0.90270434    -0.19650
F2526       F  0.86562882  0.44834034  0.81362950    -0.19700
F2527       F  0.83388800  0.47211100  0.79362932    -0.20020
F2528       F  0.82680185  0.43106236  0.80724535    -0.22700
C2529       C  0.89327090  0.55917282  0.16554555    -0.05530
C2530       C  0.87555948  0.54223046  0.17811682     0.00390
C2531       C  0.87832848  0.53869412  0.20623438    -0.08180
C2532       C  0.89629020  0.55448472  0.22044720    -0.05560
C2533       C  0.91268482  0.57268126  0.20789712     0.00380
C2534       C  0.91246560  0.57313251  0.17967656    -0.08090
C2535       C  0.93064561  0.59045981  0.16389962     0.62290
H2536       H  0.89238528  0.56126088  0.14415161     0.12980
H2537       H  0.89596864  0.55416717  0.24195871     0.13000
C2538       C  0.86248444  0.51988513  0.22297648     0.62520
F2539       F  0.94239659  0.57542955  0.14442700    -0.22640
F2540       F  0.94980369  0.60131620  0.17961590    -0.19970
F2541       F  0.91684996  0.61074040  0.15198440    -0.19650
F2542       F  0.87895415  0.50509265  0.23866048    -0.19700
F2543       F  0.84777601  0.50260681  0.20829335    -0.20020
F2544       F  0.84641246  0.53423808  0.23945866    -0.22700
C2545       C  0.79516353  0.56971591  0.14284028    -0.05530
C2546       C  0.79831771  0.57460037  0.11559666     0.00390
C2547       C  0.82052908  0.56436214  0.10295460    -0.08180
C2548       C  0.83900853  0.55018435  0.11824001    -0.05560
C2549       C  0.83622203  0.54586422  0.14581927     0.00380
C2550       C  0.81388920  0.55648719  0.15833831    -0.08090
C2551       C  0.80987375  0.55506158  0.18805647     0.62290
H2552       H  0.77836545  0.57825135  0.15232171     0.12980
H2553       H  0.85606723  0.54256086  0.10871636     0.13000
C2554       C  0.82477823  0.56872800  0.07354938     0.62520
F2555       F  0.78726705  0.56741132  0.19589345    -0.22640
F2556       F  0.82997092  0.56769543  0.20076455    -0.19970
F2557       F  0.80845786  0.52901793  0.19606179    -0.19650
F2558       F  0.82568195  0.59556080  0.06808569    -0.19700
F2559       F  0.80474241  0.55744191  0.05943053    -0.20020
F2560       F  0.84759674  0.55735571  0.06496261    -0.22700
C2561       C  0.81258914  0.49042521  0.13856591    -0.05530
C2562       C  0.83921212  0.49087428  0.13252582     0.00390
C2563       C  0.84671435  0.48262608  0.10677123    -0.08180
C2564       C  0.82768162  0.47314212  0.08886319    -0.05560
C2565       C  0.80152578  0.46952771  0.09613225     0.00380
C2566       C  0.79382209  0.47919634  0.12136960    -0.08090
C2567       C  0.76615986  0.47670652  0.13075224     0.62290
H2568       H  0.80675760  0.49769290  0.15776572     0.12980
H2569       H  0.83366052  0.46559929  0.06973479     0.13000
C2570       C  0.87493094  0.48211400  0.09870197     0.62520
F2571       F  0.76297208  0.48639393  0.15622115    -0.22640
F2572       F  0.75877377  0.45040102  0.13075354    -0.19970
F2573       F  0.75013810  0.49104395  0.11412486    -0.19650
F2574       F  0.88787026  0.46305268  0.11328703    -0.19700
F2575       F  0.88628442  0.50642668  0.10320093    -0.20020
F2576       F  0.87787322  0.47612328  0.07209024    -0.22700
C2577       C  0.90402322  0.49335055  0.17149064    -0.05530
C2578       C  0.87889689  0.48351226  0.16595374     0.00390
C2579       C  0.87357158  0.45735900  0.17551579    -0.08180
C2580       C  0.89169441  0.44490320  0.19247956    -0.05560
C2581       C  0.91213676  0.45888833  0.20444563     0.00380
C2582       C  0.91949862  0.48293318  0.19242667    -0.08090
C2583       C  0.94284979  0.49785540  0.20237269     0.62290
H2584       H  0.91055149  0.51070369  0.16103360     0.12980
H2585       H  0.88753714  0.42547463  0.20028497     0.13000
C2586       C  0.84833698  0.44287459  0.17033922     0.62520
F2587       F  0.94700470  0.52083162  0.18802162    -0.22640
F2588       F  0.96449628  0.48199698  0.20009658    -0.19970
F2589       F  0.93945361  0.50466545  0.22870338    -0.19650
F2590       F  0.84521325  0.43824218  0.14355201    -0.19700
F2591       F  0.82797887  0.45757025  0.18005219    -0.20020
F2592       F  0.84746745  0.41844793  0.18280343    -0.22700
C2593       C  0.53342473  0.81876111  0.13635648    -0.05530
C2594       C  0.54735594  0.84259927  0.13978502     0.00390
C2595       C  0.57200795  0.84377325  0.12695248    -0.08180
C2596       C  0.58220149  0.82074977  0.11424641    -0.05560
C2597       C  0.56780117  0.79736543  0.11145522     0.00380
C2598       C  0.54201951  0.79759195  0.12054862    -0.08090
C2599       C  0.52348767  0.77527589  0.11362582     0.62290
H2600       H  0.51597637  0.81573137  0.14731791     0.12980
H2601       H  0.60199186  0.82050769  0.10744137     0.13000
C2602       C  0.58794577  0.86884940  0.12648373     0.62520
F2603       F  0.49843924  0.78133034  0.12074148    -0.22640
F2604       F  0.53013032  0.75209008  0.12638468    -0.19970
F2605       F  0.52391327  0.77106947  0.08652991    -0.19650
F2606       F  0.59859674  0.87334548  0.15119878    -0.19700
F2607       F  0.57263565  0.89003508  0.11898367    -0.20020
F2608       F  0.60797056  0.86710116  0.10843914    -0.22700
C2609       C  0.55918115  0.90458736  0.17625517    -0.05530
C2610       C  0.55208910  0.87760694  0.17861290     0.00390
C2611       C  0.55576951  0.86525569  0.20356937    -0.08180
C2612       C  0.56275468  0.88100906  0.22509575    -0.05560
C2613       C  0.57307577  0.90686986  0.22288310     0.00380
C2614       C  0.57121182  0.91893150  0.19729123    -0.08090
C2615       C  0.58092069  0.94659920  0.19167266     0.62290
H2616       H  0.55501573  0.91447619  0.15768323     0.12980
H2617       H  0.56049835  0.87202888  0.24442557     0.13000
C2618       C  0.55091869  0.83627677  0.21029386     0.62520
F2619       F  0.58035137  0.95239093  0.16481078    -0.22640
F2620       F  0.60619269  0.94897141  0.20010313    -0.19970
F2621       F  0.56542117  0.96488160  0.20439787    -0.19650
F2622       F  0.54402530  0.82099849  0.18903561    -0.19700
F2623       F  0.53163542  0.83437631  0.22913133    -0.20020
F2624       F  0.57328107  0.82555969  0.22087185    -0.22700
C2625       C  0.49980132  0.89154057  0.20191442    -0.05530
C2626       C  0.49798125  0.89405544  0.17408661     0.00390
C2627       C  0.48337006  0.91600404  0.16426231    -0.08180
C2628       C  0.46881044  0.93186029  0.18218505    -0.05560
C2629       C  0.46930449  0.92762493  0.20982014     0.00380
C2630       C  0.48724298  0.90883729  0.21971504    -0.08090
C2631       C  0.49046105  0.90481837  0.24940753     0.62290
H2632       H  0.50900166  0.87432683  0.21003205     0.12980
H2633       H  0.45479792  0.94582867  0.17442698     0.13000
C2634       C  0.48152329  0.92195016  0.13487258     0.62520
F2635       F  0.51132727  0.88866933  0.25519565    -0.22640
F2636       F  0.46864128  0.89330810  0.26005293    -0.19970
F2637       F  0.49452848  0.92905905  0.26144345    -0.19650
F2638       F  0.46446126  0.90464013  0.12298133    -0.19700
F2639       F  0.50553990  0.91963818  0.12320964    -0.20020
F2640       F  0.47274477  0.94749637  0.13039982    -0.22700
C2641       C  0.45915527  0.82345181  0.13061717    -0.05530
C2642       C  0.46263427  0.82477164  0.10306083     0.00390
C2643       C  0.48140738  0.84217487  0.09269700    -0.08180
C2644       C  0.49568144  0.85823236  0.11039669    -0.05560
C2645       C  0.49150586  0.85760912  0.13807477     0.00380
C2646       C  0.47290920  0.83957616  0.14833098    -0.08090
C2647       C  0.46820762  0.83610425  0.17784817     0.62290
H2648       H  0.44441487  0.81023787  0.13807516     0.12980
H2649       H  0.51053467  0.87121441  0.10282865     0.13000
C2650       C  0.48606489  0.84380665  0.06310133     0.62520
F2651       F  0.45708757  0.85870766  0.18787001    -0.22640
F2652       F  0.49113389  0.83104848  0.19086114    -0.19970
F2653       F  0.45171413  0.81524721  0.18322036    -0.19650
F2654       F  0.46363187  0.85139175  0.05025138    -0.19700
F2655       F  0.49374080  0.81927605  0.05381010    -0.20020
F2656       F  0.50511628  0.86194594  0.05694290    -0.22700
C2657       C  0.14942080  0.56715810  0.83061831    -0.05530
C2658       C  0.13849426  0.54234500  0.83570761     0.00390
C2659       C  0.11310176  0.53834431  0.82467087    -0.08180
C2660       C  0.10407217  0.55510839  0.80377479    -0.05560
C2661       C  0.11597628  0.57953192  0.79897046     0.00380
C2662       C  0.13534890  0.58688722  0.81747512    -0.08090
C2663       C  0.13976811  0.61509016  0.82552339     0.62290
H2664       H  0.16856296  0.57191659  0.83740537     0.12980
H2665       H  0.08756343  0.54938356  0.79190976     0.13000
C2666       C  0.09450738  0.51801130  0.83523598     0.62520
F2667       F  0.14088468  0.61646124  0.85279561    -0.22640
F2668       F  0.11924155  0.63068753  0.81792247    -0.19970
F2669       F  0.16265014  0.62438826  0.81507022    -0.19650
F2670       F  0.10370682  0.50606324  0.85806256    -0.19700
F2671       F  0.08957051  0.49911822  0.81610445    -0.20020
F2672       F  0.07155205  0.53048415  0.84158183    -0.22700
C2673       C  0.17191210  0.56607611  0.88714031    -0.05530
C2674       C  0.17916342  0.53923577  0.88756458     0.00390
C2675       C  0.19657892  0.53299529  0.90882948    -0.08180
C2676       C  0.21542440  0.55167762  0.91644617    -0.05560
C2677       C  0.21261874  0.57827802  0.90916744     0.00380
C2678       C  0.18780133  0.58568060  0.89911959    -0.08090
C2679       C  0.17642684  0.61278355  0.90453690     0.62290
H2680       H  0.15331391  0.57164848  0.87942049     0.12980
H2681       H  0.23158292  0.54552790  0.92864605     0.13000
C2682       C  0.19306604  0.50906610  0.92641241     0.62520
F2683       F  0.15073801  0.61042913  0.91151907    -0.22640
F2684       F  0.17809019  0.62860642  0.88227585    -0.19970
F2685       F  0.18903183  0.62489163  0.92546909    -0.19650
F2686       F  0.21506645  0.49363310  0.92640618    -0.19700
F2687       F  0.17203546  0.49412581  0.91871741    -0.20020
F2688       F  0.18869818  0.51755658  0.95209394    -0.22700
C2689       C  0.19414286  0.47364734  0.87266791    -0.05530
C2690       C  0.19765274  0.49978417  0.86334474     0.00390
C2691       C  0.22359120  0.50910252  0.86104830    -0.08180
C2692       C  0.24401305  0.49342723  0.87062067    -0.05560
C2693       C  0.24047720  0.46811043  0.88153749     0.00380
C2694       C  0.21507275  0.45757200  0.88156202    -0.08090
C2695       C  0.20995673  0.42975538  0.89142987     0.62290
H2696       H  0.17468198  0.46656634  0.87504854     0.12980
H2697       H  0.26353024  0.50096993  0.86896880     0.13000
C2698       C  0.23148723  0.53556371  0.84915463     0.62520
F2699       F  0.18406876  0.42327485  0.88986351    -0.22640
F2700       F  0.21758978  0.42751864  0.91761916    -0.19970
F2701       F  0.22353976  0.41181157  0.87626100    -0.19650
F2702       F  0.24719322  0.54901937  0.86676737    -0.19700
F2703       F  0.21104976  0.55183687  0.84301089    -0.20020
F2704       F  0.24531418  0.53093080  0.82618303    -0.22700
C2705       C  0.13980157  0.47335457  0.83187428    -0.05530
C2706       C  0.15333470  0.49641769  0.82411869     0.00390
C2707       C  0.15627365  0.50076048  0.79631628    -0.08180
C2708       C  0.14320253  0.48454651  0.77806266    -0.05560
C2709       C  0.12919317  0.46206715  0.78569888     0.00380
C2710       C  0.12811669  0.45590492  0.81314169    -0.08090
C2711       C  0.11396858  0.43144305  0.82249913     0.62290
H2712       H  0.13680198  0.46999619  0.85281200     0.12980
H2713       H  0.14539525  0.48857216  0.75703001     0.13000
C2714       C  0.17332837  0.52187457  0.78435592     0.62520
F2715       F  0.11488659  0.42881166  0.84982580    -0.22640
F2716       F  0.12496880  0.40909956  0.81137664    -0.19970
F2717       F  0.08838172  0.43303361  0.81485784    -0.19650
F2718       F  0.18787299  0.53485072  0.80302582    -0.19700
F2719       F  0.15825672  0.54007202  0.77089050    -0.20020
F2720       F  0.19020192  0.51024476  0.76657474    -0.22700
C2721       C  0.55218869  0.21517298  0.84183287    -0.05530
C2722       C  0.54126300  0.19487797  0.85704917     0.00390
C2723       C  0.54243403  0.19777140  0.88534463    -0.08180
C2724       C  0.55338481  0.22110682  0.89668361    -0.05560
C2725       C  0.56205596  0.24230301  0.88090052     0.00380
C2726       C  0.55949856  0.23955621  0.85282930    -0.08090
C2727       C  0.56492335  0.26191167  0.83335555     0.62290
H2728       H  0.55308450  0.21321783  0.82063236     0.12980
H2729       H  0.55612945  0.22224706  0.91797088     0.13000
C2730       C  0.53371039  0.17653937  0.90451308     0.62520
F2731       F  0.54469118  0.26397069  0.81550253    -0.22640
F2732       F  0.58725390  0.25643263  0.81942913    -0.19970
F2733       F  0.56741492  0.28620370  0.84576701    -0.19650
F2734       F  0.52554520  0.15386409  0.89188840    -0.19700
F2735       F  0.51373633  0.18623174  0.91984554    -0.20020
F2736       F  0.55402415  0.16969830  0.92101557    -0.22700
C2737       C  0.54421264  0.13057545  0.83378285    -0.05530
C2738       C  0.53714088  0.15540207  0.82324727     0.00390
C2739       C  0.54059953  0.15934114  0.79532434    -0.08180
C2740       C  0.55368102  0.13990577  0.78030739    -0.05560
C2741       C  0.56286667  0.11635633  0.79161053     0.00380
C2742       C  0.55599065  0.11069597  0.81821725    -0.08090
C2743       C  0.56202799  0.08378627  0.83016904     0.62290
H2744       H  0.54044876  0.12671479  0.85449428     0.12980
H2745       H  0.55889155  0.14430236  0.75993871     0.13000
C2746       C  0.53207639  0.18353743  0.77986536     0.62520
F2747       F  0.55117768  0.08090694  0.85506994    -0.22640
F2748       F  0.58836622  0.08020267  0.83253732    -0.19970
F2749       F  0.55210334  0.06423915  0.81391042    -0.19650
F2750       F  0.55347916  0.19601168  0.76934561    -0.19700
F2751       F  0.51888868  0.20150861  0.79496093    -0.20020
F2752       F  0.51608747  0.17580026  0.75929357    -0.22700
C2753       C  0.48265286  0.13097152  0.82725051    -0.05530
C2754       C  0.48162793  0.15895170  0.82522393     0.00390
C2755       C  0.46685993  0.17005490  0.80418801    -0.08180
C2756       C  0.45755951  0.15304897  0.78419210    -0.05560
C2757       C  0.45460615  0.12561874  0.78860825     0.00380
C2758       C  0.46815335  0.11427190  0.81019224    -0.08090
C2759       C  0.46675791  0.08477087  0.81525548     0.62290
H2760       H  0.49346404  0.12233960  0.84345667     0.12980
H2761       H  0.44718907  0.16150523  0.76764085     0.13000
C2762       C  0.45675331  0.19848713  0.80477270     0.62520
F2763       F  0.48217295  0.07720805  0.83642600    -0.22640
F2764       F  0.47500358  0.07132894  0.79293379    -0.19970
F2765       F  0.44162841  0.07757321  0.82081215    -0.19650
F2766       F  0.47628969  0.21675736  0.80630242    -0.19700
F2767       F  0.44086713  0.20156062  0.82653251    -0.20020
F2768       F  0.44231931  0.20455325  0.78241633    -0.22700
C2769       C  0.45523118  0.20782048  0.89872038    -0.05530
C2770       C  0.46316456  0.23437182  0.89747234     0.00390
C2771       C  0.48282157  0.24137933  0.87949652    -0.08180
C2772       C  0.49174015  0.22239711  0.86135348    -0.05560
C2773       C  0.48446544  0.19550804  0.86252583     0.00380
C2774       C  0.46577135  0.18808378  0.88190117    -0.08090
C2775       C  0.45570601  0.15996487  0.88419696     0.62290
H2776       H  0.43919952  0.20310434  0.91160734     0.12980
H2777       H  0.50436665  0.22876657  0.84567059     0.13000
C2778       C  0.49358296  0.26940119  0.87904867     0.62520
F2779       F  0.44002598  0.15682233  0.90616619    -0.22640
F2780       F  0.47594740  0.14233436  0.88670197    -0.19970
F2781       F  0.44127600  0.15374566  0.86199774    -0.19650
F2782       F  0.50311793  0.27554701  0.90392985    -0.19700
F2783       F  0.47472951  0.28755850  0.87228150    -0.20020
F2784       F  0.51334112  0.27208838  0.86098314    -0.22700
C2785       C  0.90330177  0.86009820  0.54287799    -0.05530
C2786       C  0.88258329  0.84774160  0.52956583     0.00390
C2787       C  0.88131495  0.81936157  0.53121066    -0.08180
C2788       C  0.90090579  0.80513852  0.54458874    -0.05560
C2789       C  0.91961244  0.81768875  0.56011816     0.00380
C2790       C  0.92141356  0.84565652  0.55843398    -0.08090
C2791       C  0.94195029  0.86009495  0.57412205     0.62290
H2792       H  0.90428161  0.88150339  0.54237479     0.12980
H2793       H  0.89896585  0.78382227  0.54663084     0.13000
C2794       C  0.85866454  0.80248704  0.52280168     0.62520
F2795       F  0.94229320  0.88689138  0.56829345    -0.22640
F2796       F  0.96588015  0.84959731  0.56805899    -0.19970
F2797       F  0.93753409  0.85717502  0.60100782    -0.19650
F2798       F  0.86659405  0.78420309  0.50409814    -0.19700
F2799       F  0.83878727  0.81693489  0.51252006    -0.20020
F2800       F  0.84922850  0.78897701  0.54462841    -0.22700
C2801       C  0.84164442  0.87319708  0.56179393    -0.05530
C2802       C  0.84626523  0.88351119  0.53619320     0.00390
C2803       C  0.83487220  0.90910430  0.53091740    -0.08180
C2804       C  0.81417596  0.91827454  0.54698001    -0.05560
C2805       C  0.80771023  0.90579096  0.57086071     0.00380
C2806       C  0.82437672  0.88512778  0.57972642    -0.08090
C2807       C  0.82474312  0.87533350  0.60811644     0.62290
H2808       H  0.85129228  0.85521549  0.56811340     0.12980
H2809       H  0.80326123  0.93561313  0.54094719     0.13000
C2810       C  0.84515408  0.92932663  0.51149751     0.62520
F2811       F  0.84998877  0.87182903  0.61645050    -0.22640
F2812       F  0.81202865  0.85136352  0.60999708    -0.19970
F2813       F  0.81351826  0.89354352  0.62493096    -0.19650
F2814       F  0.82600834  0.93700660  0.49400109    -0.19700
F2815       F  0.86598052  0.92033795  0.49747089    -0.20020
F2816       F  0.85298632  0.95146993  0.52547016    -0.22700
C2817       C  0.83960931  0.89434476  0.45385163    -0.05530
C2818       C  0.83415361  0.87839757  0.47628530     0.00390
C2819       C  0.80771915  0.87738448  0.48461776    -0.08180
C2820       C  0.78996902  0.89593837  0.47406001    -0.05560
C2821       C  0.79480579  0.91014503  0.45059929     0.00380
C2822       C  0.82021470  0.90911094  0.44017916    -0.08090
C2823       C  0.82660586  0.92307689  0.41441496     0.62290
H2824       H  0.85926915  0.89468473  0.44668465     0.12980
H2825       H  0.77028508  0.89612398  0.48120599     0.13000
C2826       C  0.79622748  0.85408917  0.49977982     0.62520
F2827       F  0.85230023  0.91999210  0.40765399    -0.22640
F2828       F  0.82159774  0.94985821  0.41693850    -0.19970
F2829       F  0.81174636  0.91288701  0.39403596    -0.19650
F2830       F  0.80625171  0.85173123  0.52488660    -0.19700
F2831       F  0.80065591  0.83114901  0.48561351    -0.20020
F2832       F  0.76974435  0.85632857  0.50265052    -0.22700
C2833       C  0.86296289  0.82389590  0.46010096    -0.05530
C2834       C  0.87413473  0.84636291  0.47210324     0.00390
C2835       C  0.90108716  0.85070700  0.46718987    -0.08180
C2836       C  0.91502369  0.83290282  0.45082642    -0.05560
C2837       C  0.90368842  0.81072028  0.43898787     0.00380
C2838       C  0.87731759  0.80566417  0.44453680    -0.08090
C2839       C  0.86451760  0.78065586  0.43429566     0.62290
H2840       H  0.84264629  0.82045469  0.46314925     0.12980
H2841       H  0.93490104  0.83734501  0.44587410     0.13000
C2842       C  0.91650420  0.87431902  0.47665969     0.62520
F2843       F  0.84007074  0.77738818  0.44476749    -0.22640
F2844       F  0.87922763  0.75889309  0.44149613    -0.19970
F2845       F  0.86233235  0.78143544  0.40698658    -0.19650
F2846       F  0.90268960  0.89144330  0.49211054    -0.19700
F2847       F  0.92537924  0.88829656  0.45489947    -0.20020
F2848       F  0.93747464  0.86553409  0.49126733    -0.22700
C2849       C  0.83381764  0.14533738  0.54288271    -0.05530
C2850       C  0.82853423  0.16783205  0.52705940     0.00390
C2851       C  0.80211537  0.17397750  0.52208203    -0.08180
C2852       C  0.78270688  0.15695882  0.53169795    -0.05560
C2853       C  0.78767887  0.13667646  0.55033277     0.00380
C2854       C  0.81399044  0.12958226  0.55447287    -0.08090
C2855       C  0.82126313  0.10468833  0.56965292     0.62290
H2856       H  0.85380338  0.14003107  0.54600369     0.12980
H2857       H  0.76274683  0.16222145  0.52780220     0.13000
C2858       C  0.79264598  0.19919241  0.50882792     0.62520
F2859       F  0.84770347  0.10087240  0.57042465    -0.22640
F2860       F  0.81039976  0.08299269  0.55725743    -0.19970
F2861       F  0.81259536  0.10588961  0.59544509    -0.19650
F2862       F  0.77960729  0.19296487  0.48572933    -0.19700
F2863       F  0.81214512  0.21663766  0.50298571    -0.20020
F2864       F  0.77577598  0.21209687  0.52570654    -0.22700
C2865       C  0.85782162  0.22169286  0.54363266    -0.05530
C2866       C  0.86857887  0.19894794  0.53198548     0.00390
C2867       C  0.89594819  0.19594464  0.53332985    -0.08180
C2868       C  0.91131666  0.21649151  0.54427029    -0.05560
C2869       C  0.90053251  0.23986273  0.55463102     0.00380
C2870       C  0.87316781  0.24264090  0.55332013    -0.08090
C2871       C  0.85929613  0.26719196  0.56321772     0.62290
H2872       H  0.83708827  0.22412112  0.54344758     0.12980
H2873       H  0.93186884  0.21326367  0.54669033     0.13000
C2874       C  0.90984436  0.17083648  0.52525876     0.62520
F2875       F  0.84018481  0.27448385  0.54541238    -0.22640
F2876       F  0.87586250  0.28845428  0.56587176    -0.19970
F2877       F  0.84798650  0.26184710  0.58744522    -0.19650
F2878       F  0.92617635  0.17622671  0.50430935    -0.19700
F2879       F  0.89315999  0.15083802  0.51805253    -0.20020
F2880       F  0.92441783  0.16170116  0.54641397    -0.22700
C2881       C  0.91116504  0.21274524  0.44572375    -0.05530
C2882       C  0.91012203  0.23962918  0.45326042     0.00390
C2883       C  0.89266339  0.24702062  0.47337116    -0.08180
C2884       C  0.87454796  0.22848924  0.48247802    -0.05560
C2885       C  0.87468710  0.20160147  0.47473312     0.00380
C2886       C  0.89405989  0.19344311  0.45638479    -0.08090
C2887       C  0.89541044  0.16522603  0.44602269     0.62290
H2888       H  0.92372600  0.20749080  0.42941569     0.12980
H2889       H  0.85906447  0.23549287  0.49485763     0.13000
C2890       C  0.89191104  0.27537744  0.48350642     0.62520
F2891       F  0.87490788  0.16038734  0.42919514    -0.22640
F2892       F  0.89467738  0.14732547  0.46669921    -0.19970
F2893       F  0.91794549  0.16077812  0.43203140    -0.19650
F2894       F  0.88342136  0.29247737  0.46388627    -0.19700
F2895       F  0.91639952  0.28279475  0.49143881    -0.20020
F2896       F  0.87560911  0.27809681  0.50494159    -0.22700
C2897       C  0.82799889  0.14187841  0.47480673    -0.05530
C2898       C  0.83530279  0.16826651  0.46837954     0.00390
C2899       C  0.82242958  0.18032664  0.44640025    -0.08180
C2900       C  0.80225326  0.16643817  0.43400072    -0.05560
C2901       C  0.79173602  0.14239019  0.44344420     0.00380
C2902       C  0.80568910  0.12936699  0.46389831    -0.08090
C2903       C  0.79686455  0.10300064  0.47488872     0.62290
H2904       H  0.83909631  0.13161815  0.48983169     0.12980
H2905       H  0.79287947  0.17595797  0.41769287     0.13000
C2906       C  0.82826811  0.20816729  0.43595975     0.62520
F2907       F  0.81094331  0.09563522  0.49707876    -0.22640
F2908       F  0.80005605  0.08359284  0.45588929    -0.19970
F2909       F  0.77118180  0.10446940  0.48209761    -0.19650
F2910       F  0.85232808  0.20880559  0.42446104    -0.19700
F2911       F  0.82689265  0.22653477  0.45606120    -0.20020
F2912       F  0.81088180  0.21637069  0.41670199    -0.22700
C2913       C  0.22011055  0.87841850  0.52152165    -0.05530
C2914       C  0.21827791  0.85034440  0.52432985     0.00390
C2915       C  0.23328717  0.83887466  0.54486851    -0.08180
C2916       C  0.24578646  0.85545210  0.56279495    -0.05560
C2917       C  0.25341314  0.88169901  0.55663333     0.00380
C2918       C  0.23887194  0.89390498  0.53584256    -0.08090
C2919       C  0.24221319  0.92285240  0.52922834     0.62290
H2920       H  0.20785344  0.88790084  0.50692588     0.12980
H2921       H  0.25147216  0.84644395  0.58128924     0.13000
C2922       C  0.23950145  0.80947760  0.54679347     0.62520
F2923       F  0.22663421  0.93055161  0.50823755    -0.22640
F2924       F  0.26751752  0.92764273  0.52221506    -0.19970
F2925       F  0.23566977  0.93800841  0.55103452    -0.19650
F2926       F  0.25847037  0.80419061  0.56551266    -0.19700
F2927       F  0.24897903  0.80086863  0.52276445    -0.20020
F2928       F  0.21811787  0.79518936  0.55397120    -0.22700
C2929       C  0.16574791  0.82800501  0.54007118    -0.05530
C2930       C  0.18157548  0.81544009  0.52120020     0.00390
C2931       C  0.17860330  0.78732403  0.51806852    -0.08180
C2932       C  0.15915636  0.77405368  0.53231437    -0.05560
C2933       C  0.14553127  0.78617126  0.55299429     0.00380
C2934       C  0.14871311  0.81389481  0.55670508    -0.08090
C2935       C  0.13611826  0.82952730  0.57885953     0.62290
H2936       H  0.16772970  0.84919059  0.54292641     0.12980
H2937       H  0.15752333  0.75272298  0.53021959     0.13000
C2938       C  0.19692807  0.76910457  0.50334025     0.62520
F2939       F  0.12303677  0.85095400  0.56815774    -0.22640
F2940       F  0.15503190  0.83881876  0.59584943    -0.19970
F2941       F  0.11875491  0.81486725  0.59342197    -0.19650
F2942       F  0.20716447  0.75080999  0.52097211    -0.19700
F2943       F  0.21717408  0.78217443  0.49188945    -0.20020
F2944       F  0.18362047  0.75547540  0.48391266    -0.22700
C2945       C  0.17727897  0.78193047  0.42878213    -0.05530
C2946       C  0.15152595  0.77688272  0.43663277     0.00390
C2947       C  0.14111101  0.79381095  0.45650184    -0.08180
C2948       C  0.15701231  0.81384647  0.46780325    -0.05560
C2949       C  0.18379829  0.81593084  0.46257743     0.00380
C2950       C  0.19405096  0.79896256  0.44258822    -0.08090
C2951       C  0.22250883  0.79582671  0.43567639     0.62290
H2952       H  0.18558548  0.77057903  0.41276103     0.12980
H2953       H  0.14874148  0.82749936  0.48196960     0.13000
C2954       C  0.11368836  0.79098182  0.46641100     0.62520
F2955       F  0.22902822  0.76919397  0.43639700    -0.22640
F2956       F  0.23899385  0.80845778  0.45284687    -0.19970
F2957       F  0.22675749  0.80525951  0.41031047    -0.19650
F2958       F  0.10809789  0.76468047  0.47142916    -0.19700
F2959       F  0.09680452  0.80099314  0.44765809    -0.20020
F2960       F  0.10985706  0.80485760  0.48975408    -0.22700
C2961       C  0.24278375  0.85942515  0.47168339    -0.05530
C2962       C  0.21656293  0.85606241  0.46441459     0.00390
C2963       C  0.20649201  0.87319731  0.44425363    -0.08180
C2964       C  0.22249618  0.89313402  0.43345459    -0.05560
C2965       C  0.24855471  0.89588811  0.44057258     0.00380
C2966       C  0.25861411  0.87925411  0.46059868    -0.08090
C2967       C  0.28651276  0.88189431  0.46927869     0.62290
H2968       H  0.25115489  0.84581267  0.48589138     0.12980
H2969       H  0.21561328  0.90503780  0.41698772     0.13000
C2970       C  0.17968621  0.86988776  0.43243026     0.62520
F2971       F  0.29209062  0.86599440  0.49095290    -0.22640
F2972       F  0.29134584  0.90789268  0.47626621    -0.19970
F2973       F  0.30275495  0.87482061  0.44874129    -0.19650
F2974       F  0.16141046  0.86922490  0.45228329    -0.19700
F2975       F  0.17869797  0.84687493  0.41766265    -0.20020
F2976       F  0.17324511  0.89049196  0.41549839    -0.22700
C2977       C  0.55161109  0.13064842  0.16077970    -0.05530
C2978       C  0.54208296  0.15512785  0.17007071     0.00390
C2979       C  0.54242159  0.15924116  0.19828094    -0.08180
C2980       C  0.55167790  0.13904837  0.21527086    -0.05560
C2981       C  0.56386188  0.11614514  0.20572434     0.00380
C2982       C  0.56291098  0.11147866  0.17797242    -0.08090
C2983       C  0.57485384  0.08654447  0.16665581     0.62290
H2984       H  0.55144429  0.12720884  0.13960726     0.12980
H2985       H  0.55320842  0.14320674  0.23634046     0.13000
C2986       C  0.53639379  0.18530623  0.21205260     0.62520
F2987       F  0.57025992  0.08424242  0.13969520    -0.22640
F2988       F  0.56441759  0.06468853  0.17919354    -0.19970
F2989       F  0.60123517  0.08666472  0.17068114    -0.19650
F2990       F  0.51755885  0.18141787  0.23097855    -0.19700
F2991       F  0.52844509  0.20493190  0.19491568    -0.20020
F2992       F  0.55828633  0.19421269  0.22499031    -0.22700
C2993       C  0.53359193  0.19893579  0.10507307    -0.05530
C2994       C  0.54578108  0.18983234  0.12891582     0.00390
C2995       C  0.57240924  0.19729257  0.13153608    -0.08180
C2996       C  0.58278106  0.21599224  0.11349789    -0.05560
C2997       C  0.56713795  0.23190125  0.09686869     0.00380
C2998       C  0.54271434  0.22137800  0.09050664    -0.08090
C2999       C  0.52675890  0.23335008  0.06837717     0.62290
H3000       H  0.51552741  0.19004542  0.09924292     0.12980
H3001       H  0.60280814  0.22168960  0.11529671     0.13000
C3002       C  0.59037613  0.18748547  0.15339159     0.62520
F3003       F  0.50334928  0.22056629  0.06544161    -0.22640
F3004       F  0.54011445  0.23116999  0.04477668    -0.19970
F3005       F  0.52194369  0.25978030  0.07348239    -0.19650
F3006       F  0.59386224  0.16050123  0.15145647    -0.19700
F3007       F  0.58054239  0.19412426  0.17778889    -0.20020
F3008       F  0.61466126  0.19878267  0.15200828    -0.22700
C3009       C  0.50038358  0.22693314  0.14302368    -0.05530
C3010       C  0.48893324  0.20175656  0.13975768     0.00390
C3011       C  0.46615509  0.20054071  0.12362032    -0.08180
C3012       C  0.45770855  0.22354180  0.10983948    -0.05560
C3013       C  0.46997852  0.24811529  0.11240841     0.00380
C3014       C  0.49188794  0.24968026  0.12921290    -0.08090
C3015       C  0.50578643  0.27561947  0.13423797     0.62290
H3016       H  0.51710623  0.22874955  0.15568184     0.12980
H3017       H  0.44014555  0.22303710  0.09820875     0.13000
C3018       C  0.45002115  0.17566646  0.12103242     0.62520
F3019       F  0.53199131  0.27124280  0.13685669    -0.22640
F3020       F  0.49673940  0.28679908  0.15744319    -0.19970
F3021       F  0.50223084  0.29336990  0.11359985    -0.19650
F3022       F  0.44106325  0.16791678  0.14562085    -0.19700
F3023       F  0.46456354  0.15583435  0.10984518    -0.20020
F3024       F  0.42863308  0.17945277  0.10495276    -0.22700
C3025       C  0.47771305  0.17006452  0.19374423    -0.05530
C3026       C  0.48764613  0.15923462  0.17016010     0.00390
C3027       C  0.48426425  0.13140528  0.16582748    -0.08180
C3028       C  0.47024094  0.11629722  0.18450572    -0.05560
C3029       C  0.45981853  0.12741163  0.20760583     0.00380
C3030       C  0.46520687  0.15438377  0.21311285    -0.08090
C3031       C  0.45785257  0.16632648  0.23973029     0.62290
H3032       H  0.48033918  0.19103275  0.19721079     0.12980
H3033       H  0.46546995  0.09591429  0.17986592     0.13000
C3034       C  0.49291239  0.11648221  0.14124117     0.62520
F3035       F  0.46528113  0.19256849  0.24168899    -0.22640
F3036       F  0.47001985  0.15223285  0.25972424    -0.19970
F3037       F  0.43155279  0.16518276  0.24373218    -0.19650
F3038       F  0.50605618  0.13198254  0.12324059    -0.19700
F3039       F  0.50871971  0.09565208  0.14870811    -0.20020
F3040       F  0.47150924  0.10609728  0.12857795    -0.22700
C3041       C  0.23278155  0.57633794  0.12184470    -0.05530
C3042       C  0.21758304  0.58397181  0.10017798     0.00390
C3043       C  0.19259566  0.57253672  0.09758437    -0.08180
C3044       C  0.18349919  0.55504885  0.11738371    -0.05560
C3045       C  0.19907171  0.54639773  0.13858135     0.00380
C3046       C  0.22440984  0.55757103  0.14082987    -0.08090
C3047       C  0.24307430  0.55048866  0.16298866     0.62290
H3048       H  0.25152250  0.58551773  0.12385824     0.12980
H3049       H  0.16443051  0.54654994  0.11523534     0.13000
C3050       C  0.17504132  0.57713998  0.07385208     0.62520
F3051       F  0.26398943  0.56747594  0.16387619    -0.22640
F3052       F  0.25267060  0.52534830  0.15915996    -0.19970
F3053       F  0.23101156  0.55218450  0.18720295    -0.19650
F3054       F  0.18745923  0.58910425  0.05279242    -0.19700
F3055       F  0.15441056  0.59275366  0.08146297    -0.20020
F3056       F  0.16574412  0.55308200  0.06485245    -0.22700
C3057       C  0.16830567  0.57075357  0.18962340    -0.05530
C3058       C  0.15497269  0.55036757  0.17685451     0.00390
C3059       C  0.12753578  0.55063542  0.17822329    -0.08180
C3060       C  0.11500967  0.56773986  0.19620982    -0.05560
C3061       C  0.12895100  0.58527980  0.21225073     0.00380
C3062       C  0.15626259  0.58681619  0.20873271    -0.08090
C3063       C  0.17376818  0.60388895  0.22593646     0.62290
H3064       H  0.18896303  0.57177107  0.18757322     0.12980
H3065       H  0.09412079  0.56795334  0.19709805     0.13000
C3066       C  0.11082237  0.53334384  0.16075811     0.62520
F3067       F  0.19577402  0.58992137  0.23292365    -0.22640
F3068       F  0.16196073  0.61149648  0.24927070    -0.19970
F3069       F  0.18110230  0.62616007  0.21190426    -0.19650
F3070       F  0.09731249  0.51559100  0.17630597    -0.19700
F3071       F  0.12510360  0.51949562  0.14221760    -0.20020
F3072       F  0.09339194  0.54912681  0.14715679    -0.22700
C3073       C  0.14587276  0.48076381  0.18330565    -0.05530
C3074       C  0.15952679  0.50349861  0.19182463     0.00390
C3075       C  0.15600880  0.51082157  0.21888166    -0.08180
C3076       C  0.13502388  0.50093419  0.23307646    -0.05560
C3077       C  0.12437158  0.47623209  0.22697623     0.00380
C3078       C  0.13004774  0.46575262  0.20125290    -0.08090
C3079       C  0.11928415  0.43928663  0.19272261     0.62290
H3080       H  0.14779244  0.47476418  0.16280283     0.12980
H3081       H  0.13119134  0.50929653  0.25250938     0.13000
C3082       C  0.17539392  0.52620156  0.23521868     0.62520
F3083       F  0.12728146  0.43252455  0.16743282    -0.22640
F3084       F  0.09264870  0.44039801  0.19274343    -0.19970
F3085       F  0.12748911  0.41968079  0.20999565    -0.19650
F3086       F  0.16339272  0.54713639  0.24781843    -0.19700
F3087       F  0.19563789  0.53555656  0.22049280    -0.20020
F3088       F  0.18551315  0.50958266  0.25446685    -0.22700
C3089       C  0.19653818  0.49147585  0.11630142    -0.05530
C3090       C  0.20062943  0.49666638  0.14369089     0.00390
C3091       C  0.22079679  0.48250910  0.15639099    -0.08180
C3092       C  0.23901929  0.46913219  0.14058005    -0.05560
C3093       C  0.23483196  0.46330846  0.11344153     0.00380
C3094       C  0.21263369  0.47426523  0.10128320    -0.08090
C3095       C  0.20618913  0.46810666  0.07264487     0.62290
H3096       H  0.18078130  0.50158554  0.10646434     0.12980
H3097       H  0.25576789  0.46042178  0.15010553     0.13000
C3098       C  0.22255559  0.47953016  0.18633398     0.62520
F3099       F  0.18316927  0.47971930  0.06485760    -0.22640
F3100       F  0.20400226  0.44101945  0.06927518    -0.19970
F3101       F  0.22549982  0.47760251  0.05638720    -0.19650
F3102       F  0.20065066  0.46715235  0.19558428    -0.19700
F3103       F  0.22505363  0.50368179  0.19839008    -0.20020
F3104       F  0.24346319  0.46417590  0.19401307    -0.22700
C3105       C  0.14837681  0.21627633  0.51882143    -0.05530
C3106       C  0.14380391  0.18997916  0.52693721     0.00390
C3107       C  0.12436607  0.18613672  0.54677027    -0.08180
C3108       C  0.11200361  0.20857648  0.55829958    -0.05560
C3109       C  0.11674562  0.23454042  0.54944012     0.00380
C3110       C  0.13335891  0.23778367  0.52741109    -0.08090
C3111       C  0.13725412  0.26427974  0.51365207     0.62290
H3112       H  0.16428608  0.22040465  0.50572097     0.12980
H3113       H  0.09954880  0.20584042  0.57532034     0.13000
C3114       C  0.11626074  0.15931554  0.55739263     0.62520
F3115       F  0.16253027  0.27234328  0.51673683    -0.22640
F3116       F  0.12108667  0.28393673  0.52309966    -0.19970
F3117       F  0.13206385  0.26147206  0.48697043    -0.19650
F3118       F  0.12137190  0.15809227  0.58428913    -0.19700
F3119       F  0.12855078  0.13835668  0.54528808    -0.20020
F3120       F  0.09001750  0.15627833  0.55353871    -0.22700
C3121       C  0.18485468  0.16660811  0.55957752    -0.05530
C3122       C  0.17949572  0.15364452  0.53539010     0.00390
C3123       C  0.19063007  0.12761319  0.53297199    -0.08180
C3124       C  0.21190346  0.12027828  0.54943735    -0.05560
C3125       C  0.21762067  0.13414006  0.57294321     0.00380
C3126       C  0.20004067  0.15498400  0.57965082    -0.08090
C3127       C  0.19376802  0.16354821  0.60791087     0.62290
H3128       H  0.17533812  0.18507530  0.56432924     0.12980
H3129       H  0.22250633  0.10234839  0.54496779     0.13000
C3130       C  0.17865358  0.10529475  0.51727785     0.62520
F3131       F  0.16731133  0.16364087  0.61133413    -0.22640
F3132       F  0.20269469  0.18896030  0.61241957    -0.19970
F3133       F  0.20377442  0.14643984  0.62677527    -0.19650
F3134       F  0.19545242  0.09672453  0.49785267    -0.19700
F3135       F  0.15541628  0.11242524  0.50609049    -0.20020
F3136       F  0.17387357  0.08427145  0.53419340    -0.22700
C3137       C  0.20966901  0.15246898  0.47999916    -0.05530
C3138       C  0.18336706  0.14879263  0.47353627     0.00390
C3139       C  0.17758114  0.13067702  0.45245739    -0.08180
C3140       C  0.19787405  0.11644231  0.44009959    -0.05560
C3141       C  0.22403355  0.12124830  0.44555252     0.00380
C3142       C  0.22992911  0.13930986  0.46626626    -0.08090
C3143       C  0.25779998  0.14551833  0.47288786     0.62290
H3144       H  0.21435299  0.16681086  0.49518713     0.12980
H3145       H  0.19368156  0.10364290  0.42342640     0.13000
C3146       C  0.15048954  0.12708375  0.44134496     0.62520
F3147       F  0.25986241  0.16228051  0.49449677    -0.22640
F3148       F  0.26957504  0.15756892  0.45146976    -0.19970
F3149       F  0.27074113  0.12226248  0.47881297    -0.19650
F3150       F  0.14259792  0.14997357  0.42866236    -0.19700
F3151       F  0.13344422  0.12084731  0.46124631    -0.20020
F3152       F  0.14930985  0.10681566  0.42291248    -0.22700
C3153       C  0.16345070  0.20475626  0.45798839    -0.05530
C3154       C  0.14824372  0.18515789  0.46999320     0.00390
C3155       C  0.12075293  0.18736554  0.46698497    -0.08180
C3156       C  0.11026234  0.20736336  0.45012824    -0.05560
C3157       C  0.12579636  0.22685161  0.43839606     0.00380
C3158       C  0.15257451  0.22681700  0.44509210    -0.08090
C3159       C  0.17028994  0.25029369  0.44017000     0.62290
H3160       H  0.18412784  0.20438440  0.46130344     0.12980
H3161       H  0.08978966  0.20741054  0.44574005     0.13000
C3162       C  0.10140040  0.16919562  0.48011252     0.62520
F3163       F  0.18401922  0.25585761  0.46306801    -0.22640
F3164       F  0.15676031  0.27297823  0.43345148    -0.19970
F3165       F  0.18761678  0.24428727  0.42024006    -0.19650
F3166       F  0.08498758  0.18415646  0.49570306    -0.19700
F3167       F  0.11262954  0.15015611  0.49594437    -0.20020
F3168       F  0.08701243  0.15654327  0.46080086    -0.22700
loop_ 
_geom_bond_atom_site_label_1 
_geom_bond_atom_site_label_2 
_geom_bond_distance 
_geom_bond_site_symmetry_2 
_ccdc_geom_bond_type 
C1            C2   1.408       .  D
C1         C3138   1.537       .  S
C1         C3154   1.529       .  S
C2         C3106   1.544       .  S
C2         C3122   1.555       .  S
C3            C4   1.402       .  D
C3         C3045   1.528       .  S
C3         C3090   1.521       .  S
C4         C3058   1.513       .  S
C4         C3074   1.531       .  S
C5            C6   1.402       .  D
C5         C2978   1.538       .  S
C5         C2994   1.569       .  S
C6         C3010   1.541       .  S
C6         C3026   1.524       .  S
C7            C8   1.399       .  D
C7         C2914   1.544       .  S
C7         C2930   1.530       .  S
C8         C2949   1.534       .  S
C8         C2962   1.536       .  S
C9           C10   1.399       .  D
C9         C2885   1.535       .  S
C9         C2898   1.539       .  S
C10        C2850   1.530       .  S
C10        C2866   1.527       .  S
C11          C12   1.397       .  D
C11        C2786   1.541       .  S
C11        C2802   1.551       .  S
C12        C2818   1.541       .  S
C12        C2834   1.541       .  S
C13          C14   1.388       .  D
C13        C2722   1.532       .  S
C13        C2738   1.524       .  S
C14        C2754   1.521       .  S
C14        C2773   1.526       .  S
C15          C16   1.423       .  D
C15        C2658   1.536       .  S
C15        C2706   1.531       .  S
C16        C2674   1.562       .  S
C16        C2690   1.524       .  S
C17          C18   1.399       .  D
C17        C2626   1.544       .  S
C17        C2645   1.510       .  S
C18        C2594   1.558       .  S
C18        C2610   1.511       .  S
C19          C20   1.397       .  D
C19        C2562   1.534       .  S
C19        C2578   1.550       .  S
C20        C2530   1.529       .  S
C20        C2549   1.531       .  S
C21          C22   1.396       .  D
C21        C2466   1.524       .  S
C21        C2482   1.522       .  S
C22        C2498   1.532       .  S
C22        C2514   1.558       .  S
C23          C24   1.412       .  D
C23        C2434   1.553       .  S
C23        C2450   1.529       .  S
C24        C2402   1.570       .  S
C24        C2418   1.529       .  S
C25          C26   1.444       .  A
C25          C30   1.397       .  A
C25        C2370   1.509       .  S
C26          C27   1.441       .  A
C26          H31   1.079       .  S
C27          C28   1.405       .  A
C27        C2421   1.535       .  S
C28          C29   1.380       .  A
C28          H32   1.085       .  S
C29          C30   1.378       .  A
C29        C2386   1.453       .  S
C30          H33   1.086       .  S
C34          C35   1.405       .  A
C34          C39   1.441       .  A
C34        C2469   1.519       .  S
C35          C36   1.389       .  A
C35          H40   1.085       .  S
C36          C37   1.382       .  A
C36        C2354   1.467       .  S
C37          C38   1.394       .  A
C37          H41   1.087       .  S
C38          C39   1.437       .  A
C38        C2338   1.507       .  S
C39          H42   1.079       .  S
C43          C44   1.435       .  A
C43          C48   1.400       .  A
C43        C2309   1.503       .  S
C44          C45   1.431       .  A
C44          H49   1.082       .  S
C45          C46   1.389       .  A
C45        C2485   1.499       .  S
C46          C47   1.385       .  A
C46          H50   1.087       .  S
C47          C48   1.384       .  A
C47        C2322   1.461       .  S
C48          H51   1.083       .  S
C52          C53   1.398       .  A
C52          C57   1.434       .  A
C52        C2789   1.500       .  S
C53          C54   1.384       .  A
C53          H58   1.086       .  S
C54          C55   1.384       .  A
C54        C2290   1.453       .  S
C55          C56   1.398       .  A
C55          H59   1.085       .  S
C56          C57   1.434       .  A
C56        C2274   1.508       .  S
C57          H60   1.082       .  S
C61          C62   1.401       .  A
C61          C66   1.434       .  A
C61        C2805   1.517       .  S
C62          C63   1.391       .  A
C62          H67   1.084       .  S
C63          C64   1.385       .  A
C63        C2258   1.465       .  S
C64          C65   1.402       .  A
C64          H68   1.083       .  S
C65          C66   1.437       .  A
C65        C2242   1.512       .  S
C66          H69   1.082       .  S
C70          C71   1.439       .  A
C70          C75   1.399       .  A
C70        C2210   1.508       .  S
C71          C72   1.438       .  A
C71          H76   1.081       .  S
C72          C73   1.406       .  A
C72        C2405   1.524       .  S
C73          C74   1.391       .  A
C73          H77   1.085       .  S
C74          C75   1.386       .  A
C74        C2226   1.468       .  S
C75          H78   1.086       .  S
O79         Mg81   2.135       .  S
O79         Mg87   2.132       .  S
O79         C114   1.241       .  S
C80         H119   1.080       .  S
C80          O93   1.236       .  S
C80         O117   1.268       .  A
Mg81        O110   2.155       .  S
Mg81        O125   2.291       .  S
Mg81        O121   2.281       .  S
Mg81         O92   2.290       .  S
O82        Mg124   2.126       .  S
O82        Mg107   2.106       .  S
O82         C103   1.237       .  S
O83         C114   1.279       .  A
O83        Mg107   2.343       .  S
C84        C2293   1.454       .  S
C84          O86   1.265       .  A
C84          O98   1.267       .  A
O85         C113   1.268       .  A
O85         Mg87   2.293       .  S
O86        Mg118   2.225       .  S
Mg87         O93   2.121       .  S
Mg87        O101   2.175       .  S
Mg87         O89   2.223       .  S
C88        C2261   1.462       .  S
C88         O126   1.267       .  A
C88          O94   1.262       .  A
O89          C96   1.254       .  A
H90         C103   1.081       .  S
C91         H116   1.079       .  S
C91         O105   1.239       .  S
C91         O106   1.265       .  A
O92         C115   1.266       .  A
O93        Mg107   2.158       .  S
O94        Mg124   2.241       .  S
C95        C2229   1.462       .  S
C95         O108   1.267       .  A
C95         O100   1.269       .  A
C96        C2389   1.450       .  S
C96         O123   1.260       .  A
Mg97        O104   2.132       .  S
Mg97        O105   2.143       .  S
Mg97         O98   2.255       .  S
Mg97         O99   2.310       .  S
Mg97        O126   2.277       .  S
O99         C103   1.272       .  A
O100       Mg107   2.273       .  S
O101        C120   1.259       .  A
O102        C122   1.265       .  A
O102       Mg118   2.201       .  S
O104       Mg118   2.172       .  S
O104        C115   1.233       .  S
O105       Mg124   2.116       .  S
O106       Mg118   2.259       .  S
Mg107       O123   2.283       .  S
O108       Mg124   2.266       .  S
H109        C114   1.081       .  S
O110       Mg118   2.094       .  S
O110        C113   1.235       .  S
H111        C113   1.081       .  S
H112        C115   1.081       .  S
O117       Mg124   2.288       .  S
C120       C2357   1.465       .  S
C120        O125   1.272       .  A
O121        C122   1.272       .  A
C122       C2325   1.461       .  S
C127        C128   1.390   1_554  D
C127       C2178   1.545       .  S
C127       C2194   1.541       .  S
C128       C2341   1.536       .  S
C128       C2373   1.523       .  S
C129        C130   1.397       .  D
C129       C2213   1.542   1_545  S
C129       C2245   1.536   1_545  S
C130       C2149   1.538       .  S
C130       C2165   1.535       .  S
C131        C132   1.388       .  D
C131       C2114   1.533       .  S
C131       C2130   1.531       .  S
C132       C2277   1.530   1_455  S
C132       C2306   1.523   1_455  S
C133        C134   1.421       .  A
C133        C138   1.452       .  A
C133       C2517   1.565       .  S
C134        C135   1.388       .  A
C134        H139   1.079       .  S
C135        C136   1.379       .  A
C135       C2098   1.475       .  S
C136        C137   1.386       .  A
C136        H140   1.085       .  S
C137        C138   1.439       .  A
C137       C2082   1.505       .  S
C138        H141   1.070       .  S
C142        C143   1.390       .  A
C142        C147   1.444       .  A
C142       C2725   1.513       .  S
C143        C144   1.373       .  A
C143        H148   1.086       .  S
C144        C145   1.376       .  A
C144       C2066   1.435       .  S
C145        C146   1.391       .  A
C145        H149   1.087       .  S
C146        C147   1.448       .  A
C146       C2050   1.509       .  S
C147        H150   1.082       .  S
C151        C152   1.438       .  A
C151        C156   1.393       .  A
C151       C2018   1.506       .  S
C152        C153   1.439       .  A
C152        H157   1.082       .  S
C153        C154   1.392       .  A
C153       C2501   1.503       .  S
C154        C155   1.374       .  A
C154        H158   1.082       .  S
C155        C156   1.378       .  A
C155       C2034   1.445       .  S
C156        H159   1.086       .  S
C160        C161   1.394       .  A
C160        C165   1.445       .  A
C160       C2869   1.506       .  S
C161        C162   1.376       .  A
C161        H166   1.086       .  S
C162        C163   1.371       .  A
C162       C2002   1.443       .  S
C163        C164   1.392       .  A
C163        H167   1.085       .  S
C164        C165   1.442       .  A
C164       C1986   1.514       .  S
C165        H168   1.082       .  S
C169        C170   1.441       .  A
C169        C174   1.406       .  A
C169       C2853   1.525       .  S
C170        C171   1.440       .  A
C170        H175   1.079       .  S
C171        C172   1.404       .  A
C171       C2146   1.523       .  S
C172        C173   1.386       .  A
C172        H176   1.085       .  S
C173        C174   1.380       .  A
C173       C1970   1.476       .  S
C174        H177   1.083       .  S
C178        C179   1.432       .  A
C178        C183   1.396       .  A
C178       C2162   1.503       .  S
C179        C180   1.434       .  A
C179        H184   1.082       .  S
C180        C181   1.394       .  A
C180       C2741   1.490       .  S
C181        C182   1.376       .  A
C181        H185   1.086       .  S
C182        C183   1.383       .  A
C182       C1954   1.448       .  S
C183        H186   1.087       .  S
O187       Mg189   2.186       .  S
O187       Mg195   2.104       .  S
O187        C222   1.238       .  S
C188        H227   1.081       .  S
C188        O201   1.232       .  S
C188        O225   1.262       .  A
Mg189       O218   2.156       .  S
Mg189       O233   2.242       .  S
Mg189       O229   2.305       .  S
Mg189       O200   2.300       .  S
O190       Mg232   2.153       .  S
O190       Mg215   2.066       .  S
O190        C211   1.238       .  S
O191        C222   1.279       .  A
O191       Mg215   2.357       .  S
C192       C2037   1.445       .  S
C192        O194   1.268       .  A
C192        O206   1.263       .  A
O193        C221   1.269       .  A
O193       Mg195   2.297       .  S
O194       Mg226   2.216       .  S
Mg195       O201   2.084       .  S
Mg195       O209   2.195       .  S
Mg195       O197   2.230       .  S
C196       C2005   1.424       .  S
C196        O234   1.261       .  A
C196        O202   1.262       .  A
O197        C204   1.258       .  A
H198        C211   1.081       .  S
C199        H224   1.081       .  S
C199        O213   1.232       .  S
C199        O214   1.263       .  A
O200        C223   1.270       .  A
O201       Mg215   2.092       .  S
O202       Mg232   2.205       .  S
C203       C1973   1.459       .  S
C203        O216   1.266       .  A
C203        O208   1.276       .  A
C204       C1957   1.432       .  S
C204        O231   1.264       .  A
Mg205       O212   2.076       .  S
Mg205       O213   2.156       .  S
Mg205       O206   2.218       .  S
Mg205       O207   2.267       .  S
Mg205       O234   2.186       .  S
O207        C211   1.268       .  A
O208       Mg215   2.322       .  S
O209        C228   1.251       .  A
O210        C230   1.261       .  A
O210       Mg226   2.216       .  S
O212       Mg226   2.151       .  S
O212        C223   1.237       .  S
O213       Mg232   2.080       .  S
O214       Mg226   2.266       .  S
Mg215       O231   2.213       .  S
O216       Mg232   2.179       .  S
H217        C222   1.081       .  S
O218       Mg226   2.085       .  S
O218        C221   1.236       .  S
H219        C221   1.079       .  S
H220        C223   1.081       .  S
O225       Mg232   2.272       .  S
C228       C2069   1.433       .  S
C228        O233   1.256       .  A
O229        C230   1.264       .  A
C230       C2101   1.481       .  S
C235        C236   1.399       .  A
C235        C240   1.437       .  A
C235       C2437   1.518       .  S
C236        C237   1.393       .  A
C236        H241   1.085       .  S
C237        C238   1.387       .  A
C237       C1938   1.460       .  S
C238        C239   1.398       .  A
C238        H242   1.084       .  S
C239        C240   1.441       .  A
C239       C1922   1.515       .  S
C240        H243   1.082       .  S
C244        C245   1.411       .  A
C244        C249   1.436       .  A
C244       C2677   1.522       .  S
C245        C246   1.399       .  A
C245        H250   1.079       .  S
C246        C247   1.384       .  A
C246       C1906   1.486       .  S
C247        C248   1.387       .  A
C247        H251   1.082       .  S
C248        C249   1.430       .  A
C248       C1890   1.499       .  S
C249        H252   1.082       .  S
C253        C254   1.436       .  A
C253        C258   1.403       .  A
C253       C1858   1.505       .  S
C254        C255   1.434       .  A
C254        H259   1.082       .  S
C255        C256   1.387       .  A
C255       C2453   1.500       .  S
C256        C257   1.378       .  A
C256        H260   1.085       .  S
C257        C258   1.387       .  A
C257       C1874   1.457       .  S
C258        H261   1.085       .  S
C262        C263   1.406       .  A
C262        C267   1.454       .  A
C262       C2917   1.557       .  S
C263        C264   1.379       .  A
C263        H268   1.084       .  S
C264        C265   1.380       .  A
C264       C1842   1.447       .  S
C265        C266   1.398       .  A
C265        H269   1.084       .  S
C266        C267   1.451       .  A
C266       C1826   1.523       .  S
C267        H270   1.077       .  S
C271        C272   1.446       .  A
C271        C276   1.403       .  A
C271       C2117   1.520       .  S
C272        C273   1.444       .  A
C272        H277   1.082       .  S
C273        C274   1.404       .  A
C273       C2661   1.522       .  S
C274        C275   1.381       .  A
C274        H278   1.083       .  S
C275        C276   1.391       .  A
C275       C1813   1.471       .  S
C276        H279   1.084       .  S
C280        C281   1.420       .  A
C280        C285   1.400       .  A
C280       C2933   1.496       .  S
C281        C282   1.420       .  A
C281        H286   1.082       .  S
C282        C283   1.398       .  A
C282       C2133   1.493       .  S
C283        C284   1.402       .  A
C283        H287   1.085       .  S
C284        C285   1.394       .  A
C284       C1797   1.493       .  S
C285        H288   1.074       .  S
O289       Mg291   2.115       .  S
O289       Mg297   2.119       .  S
O289        C324   1.243       .  S
C290        H329   1.081       .  S
C290        O303   1.235       .  S
C290        O327   1.271       .  A
Mg291       O320   2.129       .  S
Mg291       O335   2.268       .  S
Mg291       O331   2.234       .  S
Mg291       O302   2.296       .  S
O292       Mg334   2.149       .  S
O292       Mg317   2.105       .  S
O292        C313   1.235       .  S
O293        C324   1.281       .  A
O293       Mg317   2.351       .  S
C294       C1877   1.455       .  S
C294        O296   1.258       .  A
C294        O308   1.270       .  A
O295        C323   1.269       .  A
O295       Mg297   2.304       .  S
O296       Mg328   2.171       .  S
Mg297       O303   2.137       .  S
Mg297       O311   2.264       .  S
Mg297       O299   2.175       .  S
C298       C1941   1.470       .  S
C298        O336   1.268       .  A
C298        O304   1.270       .  A
O299        C306   1.248       .  A
H300        C313   1.081       .  S
C301        H326   1.081       .  S
C301        O315   1.237       .  S
C301        O316   1.267       .  A
O302        C325   1.268       .  A
O303       Mg317   2.166       .  S
O304       Mg334   2.268       .  S
C305       C1909   1.459       .  S
C305        O318   1.269       .  A
C305        O310   1.268       .  A
C306       C1810   1.453       .  S
C306        O333   1.259       .  A
Mg307       O314   2.122       .  S
Mg307       O315   2.164       .  S
Mg307       O308   2.262       .  S
Mg307       O309   2.293       .  S
Mg307       O336   2.284       .  S
O309        C313   1.269       .  A
O310       Mg317   2.245       .  S
O311        C330   1.263       .  A
O312        C332   1.262       .  A
O312       Mg328   2.228       .  S
O314       Mg328   2.177       .  S
O314        C325   1.235       .  S
O315       Mg334   2.090       .  S
O316       Mg328   2.262       .  S
Mg317       O333   2.284       .  S
O318       Mg334   2.242       .  S
H319        C324   1.081       .  S
O320       Mg328   2.082       .  S
O320        C323   1.235       .  S
H321        C323   1.081       .  S
H322        C325   1.081       .  S
O327       Mg334   2.316       .  S
C330       C1794   1.472       .  S
C330        O335   1.264       .  A
O331        C332   1.267       .  A
C332       C1845   1.451       .  S
C337        C338   1.396       .  D
C337       C1762   1.531       .  S
C337       C1778   1.526       .  S
C338       C1829   1.545   1_545  S
C338       C1861   1.541   1_545  S
C339        C340   1.398       .  A
C339        C344   1.429       .  A
C339       C2770   1.482       .  S
C340        C341   1.378       .  A
C340        H345   1.086       .  S
C341        C342   1.375       .  A
C341       C1746   1.437       .  S
C342        C343   1.386       .  A
C342        H346   1.087       .  S
C343        C344   1.426       .  A
C343       C1730   1.489       .  S
C344        H347   1.082       .  S
C348        C349   1.435       .  A
C348        C353   1.409       .  A
C348       C1698   1.515       .  S
C349        C350   1.433       .  A
C349        H354   1.081       .  S
C350        C351   1.393       .  A
C350       C2693   1.507       .  S
C351        C352   1.385       .  A
C351        H355   1.087       .  S
C352        C353   1.394       .  A
C352       C1714   1.463       .  S
C353        H356   1.084       .  S
C357        C358   1.441       .  A
C357        C362   1.407       .  A
C357       C3125   1.534       .  S
C358        C359   1.436       .  A
C358        H363   1.081       .  S
C359        C360   1.391       .  A
C359       C1781   1.499       .  S
C360        C361   1.376       .  A
C360        H364   1.086       .  S
C361        C362   1.391       .  A
C361       C1682   1.468       .  S
C362        H365   1.076       .  S
C366        C367   1.443       .  A
C366        C371   1.409       .  A
C366       C1765   1.533       .  S
C367        C368   1.436       .  A
C367        H372   1.076       .  S
C368        C369   1.396       .  A
C368       C2757   1.505       .  S
C369        C370   1.375       .  A
C369        H373   1.087       .  S
C370        C371   1.381       .  A
C370       C1666   1.457       .  S
C371        H374   1.083       .  S
C375        C376   1.397       .  A
C375        C380   1.430       .  A
C375       C3109   1.502       .  S
C376        C377   1.383       .  A
C376        H381   1.086       .  S
C377        C378   1.387       .  A
C377       C1650   1.455       .  S
C378        C379   1.397       .  A
C378        H382   1.086       .  S
C379        C380   1.433       .  A
C379       C1637   1.497       .  S
C380        H383   1.082       .  S
C384        C385   1.434       .  A
C384        C389   1.395       .  A
C384       C1602   1.503       .  S
C385        C386   1.435       .  A
C385        H390   1.082       .  S
C386        C387   1.399       .  A
C386       C2709   1.508       .  S
C387        C388   1.388       .  A
C387        H391   1.086       .  S
C388        C389   1.385       .  A
C388       C1618   1.461       .  S
C389        H392   1.085       .  S
O393       Mg395   2.144       .  S
O393       Mg401   2.123       .  S
O393        C428   1.242       .  S
C394        H433   1.081       .  S
C394        O407   1.234       .  S
C394        O431   1.267       .  A
Mg395       O424   2.113       .  S
Mg395       O439   2.245       .  S
Mg395       O435   2.224       .  S
Mg395       O406   2.309       .  S
O396       Mg438   2.135       .  S
O396       Mg421   2.090       .  S
O396        C417   1.239       .  S
O397        C428   1.272       .  A
O397       Mg421   2.299       .  S
C398       C1717   1.468       .  S
C398        O400   1.265       .  A
C398        O412   1.257       .  A
O399        C427   1.277       .  A
O399       Mg401   2.332       .  S
O400       Mg432   2.336       .  S
Mg401       O407   2.102       .  S
Mg401       O415   2.229       .  S
Mg401       O403   2.229       .  S
C402       C1749   1.442       .  S
C402        O440   1.259       .  A
C402        O408   1.252       .  A
O403        C410   1.260       .  A
H404        C417   1.081       .  S
C405        H430   1.081       .  S
C405        O419   1.242       .  S
C405        O420   1.279       .  A
O406        C429   1.266       .  A
O407       Mg421   2.173       .  S
O408       Mg438   2.219       .  S
C409       C1669   1.445       .  S
C409        O422   1.265       .  A
C409        O414   1.267       .  A
C410       C1685   1.472       .  S
C410        O437   1.262       .  A
Mg411       O418   2.094       .  S
Mg411       O419   2.104       .  S
Mg411       O412   2.240       .  S
Mg411       O413   2.333       .  S
Mg411       O440   2.234       .  S
O413        C417   1.275       .  A
O414       Mg421   2.241       .  S
O415        C434   1.259       .  A
O416        C436   1.271       .  A
O416       Mg432   2.311       .  S
O418       Mg432   2.147       .  S
O418        C429   1.233       .  S
O419       Mg438   2.137       .  S
O420       Mg432   2.345       .  S
Mg421       O437   2.284       .  S
O422       Mg438   2.241       .  S
H423        C428   1.077       .  S
O424       Mg432   2.144       .  S
O424        C427   1.240       .  S
H425        C427   1.081       .  S
H426        C429   1.081       .  S
O431       Mg438   2.291       .  S
C434       C1653   1.451       .  S
C434        O439   1.258       .  A
O435        C436   1.260       .  A
C436       C1621   1.461       .  S
C441        C442   1.396       .  D
C441       C1989   1.557   1_455  S
C441       C2021   1.549   1_455  S
C442       C1605   1.541       .  S
C442       C1634   1.532       .  S
C443        C444   1.392   1_556  D
C443       C1701   1.545       .  S
C443       C1733   1.523       .  S
C444       C1570   1.527       .  S
C444       C1586   1.524       .  S
C445        C446   1.393       .  D
C445       C1538   1.532       .  S
C445       C1554   1.536       .  S
C446       C1506   1.530   1_545  S
C446       C1522   1.537   1_545  S
C447        C448   1.436       .  A
C447        C452   1.400       .  A
C447       C1589   1.499       .  S
C448        C449   1.434       .  A
C448        H453   1.080       .  S
C449        C450   1.394       .  A
C449       C3093   1.517       .  S
C450        C451   1.383       .  A
C450        H454   1.085       .  S
C451        C452   1.387       .  A
C451       C1490   1.462       .  S
C452        H455   1.085       .  S
C456        C457   1.437       .  A
C456        C461   1.397       .  A
C456       C3013   1.497       .  S
C457        C458   1.432       .  A
C457        H462   1.082       .  S
C458        C459   1.388       .  A
C458       C1573   1.502       .  S
C459        C460   1.385       .  A
C459        H463   1.087       .  S
C460        C461   1.381       .  A
C460       C1474   1.454       .  S
C461        H464   1.085       .  S
C465        C466   1.428       .  A
C465        C470   1.403       .  A
C465       C1557   1.502       .  S
C466        C467   1.426       .  A
C466        H471   1.082       .  S
C467        C468   1.394       .  A
C467       C3029   1.494       .  S
C468        C469   1.389       .  A
C468        H472   1.086       .  S
C469        C470   1.396       .  A
C469       C1458   1.473       .  S
C470        H473   1.084       .  S
C474        C475   1.386       .  A
C474        C479   1.383       .  A
C474       C1442   1.463       .  S
C475        C476   1.397       .  A
C475        H480   1.086       .  S
C476        C477   1.439       .  A
C476       C1541   1.514       .  S
C477        C478   1.438       .  A
C477        H481   1.081       .  S
C478        C479   1.394       .  A
C478       C3141   1.509       .  S
C479        H482   1.080       .  S
C483        C484   1.398       .  A
C483        C488   1.436       .  A
C483       C3157   1.515       .  S
C484        C485   1.386       .  A
C484        H489   1.084       .  S
C485        C486   1.377       .  A
C485       C1426   1.452       .  S
C486        C487   1.394       .  A
C486        H490   1.086       .  S
C487        C488   1.436       .  A
C487       C1410   1.494       .  S
C488        H491   1.082       .  S
C492        C493   1.433       .  A
C492        C497   1.401       .  A
C492       C1378   1.494       .  S
C493        C494   1.430       .  A
C493        H498   1.081       .  S
C494        C495   1.406       .  A
C494       C3077   1.524       .  S
C495        C496   1.387       .  A
C495        H499   1.084       .  S
C496        C497   1.387       .  A
C496       C1394   1.476       .  S
C497        H500   1.085       .  S
O501       Mg503   2.120       .  S
O501       Mg509   2.133       .  S
O501        C536   1.242       .  S
C502        H541   1.077       .  S
C502        O515   1.234       .  S
C502        O539   1.264       .  A
Mg503       O532   2.135       .  S
Mg503       O547   2.232       .  S
Mg503       O543   2.224       .  S
Mg503       O514   2.288       .  S
O504       Mg546   2.149       .  S
O504       Mg529   2.098       .  S
O504        C525   1.244       .  S
O505        C536   1.280       .  A
O505       Mg529   2.351       .  S
C506       C1445   1.471       .  S
C506        O508   1.266       .  A
C506        O520   1.252       .  A
O507        C535   1.274       .  A
O507       Mg509   2.324       .  S
O508       Mg540   2.298       .  S
Mg509       O515   2.110       .  S
Mg509       O523   2.221       .  S
Mg509       O511   2.220       .  S
C510       C1429   1.457       .  S
C510        O548   1.260       .  A
C510        O516   1.258       .  A
O511        C518   1.247       .  A
H512        C525   1.081       .  S
C513        H538   1.081       .  S
C513        O527   1.241       .  S
C513        O528   1.274       .  A
O514        C537   1.264       .  A
O515       Mg529   2.175       .  S
O516       Mg546   2.213       .  S
C517       C1397   1.473       .  S
C517        O530   1.270       .  A
C517        O522   1.265       .  A
C518       C1493   1.458       .  S
C518        O545   1.258       .  A
Mg519       O526   2.104       .  S
Mg519       O527   2.114       .  S
Mg519       O520   2.239       .  S
Mg519       O521   2.312       .  S
Mg519       O548   2.237       .  S
O521        C525   1.278       .  A
O522       Mg529   2.256       .  S
O523        C542   1.254       .  A
O524        C544   1.274       .  A
O524       Mg540   2.287       .  S
O526       Mg540   2.152       .  S
O526        C537   1.232       .  S
O527       Mg546   2.092       .  S
O528       Mg540   2.314       .  S
Mg529       O545   2.329       .  S
O530       Mg546   2.247       .  S
H531        C536   1.081       .  S
O532       Mg540   2.106       .  S
O532        C535   1.238       .  S
H533        C535   1.081       .  S
H534        C537   1.081       .  S
O539       Mg546   2.252       .  S
C542       C1477   1.473       .  S
C542        O547   1.262       .  A
O543        C544   1.267       .  A
C544       C1461   1.461       .  S
C549        C550   1.389       .  D
C549       C1381   1.533       .  S
C549       C1413   1.526       .  S
C550       C1346   1.527   1_455  S
C550       C1365   1.537   1_455  S
C551        C552   1.423       .  D
C551       C1314   1.546   1_556  S
C551       C2085   1.540       .  S
C552       C1330   1.532   1_556  S
C552       C2053   1.525       .  S
C553        C554   1.443       .  A
C553        C558   1.410       .  A
C553       C1362   1.521       .  S
C554        C555   1.437       .  A
C554        H559   1.077       .  S
C555        C556   1.403       .  A
C555       C2581   1.517       .  S
C556        C557   1.381       .  A
C556        H560   1.085       .  S
C557        C558   1.389       .  A
C557       C1298   1.473       .  S
C558        H561   1.085       .  S
C562        C563   1.437       .  A
C562        C567   1.398       .  A
C562       C2882   1.491       .  S
C563        C564   1.437       .  A
C563        H568   1.082       .  S
C564        C565   1.395       .  A
C564       C1349   1.508       .  S
C565        C566   1.380       .  A
C565        H569   1.087       .  S
C566        C567   1.377       .  A
C566       C1282   1.449       .  S
C567        H570   1.084       .  S
C571        C572   1.451       .  A
C571        C576   1.404       .  A
C571       C2997   1.537       .  S
C572        C573   1.452       .  A
C572        H577   1.080       .  S
C573        C574   1.399       .  A
C573       C1333   1.511       .  S
C574        C575   1.376       .  A
C574        H578   1.086       .  S
C575        C576   1.376       .  A
C575       C1269   1.463       .  S
C576        H579   1.085       .  S
C580        C581   1.444       .  A
C580        C585   1.401       .  A
C580       C2565   1.522       .  S
C581        C582   1.439       .  A
C581        H586   1.080       .  S
C582        C583   1.396       .  A
C582       C1317   1.520       .  S
C583        C584   1.388       .  A
C583        H587   1.083       .  S
C584        C585   1.386       .  A
C584       C1253   1.455       .  S
C585        H588   1.086       .  S
C589        C590   1.441       .  A
C589        C594   1.388       .  A
C589       C1218   1.512       .  S
C590        C591   1.445       .  A
C590        H595   1.082       .  S
C591        C592   1.395       .  A
C591       C2981   1.500       .  S
C592        C593   1.372       .  A
C592        H596   1.086       .  S
C593        C594   1.374       .  A
C593       C1234   1.433       .  S
C594        H597   1.088       .  S
C598        C599   1.443       .  A
C598        C603   1.411       .  A
C598       C2901   1.537       .  S
C599        C600   1.440       .  A
C599        H604   1.078       .  S
C600        C601   1.399       .  A
C600       C1189   1.509       .  S
C601        C602   1.382       .  A
C601        H605   1.085       .  S
C602        C603   1.393       .  A
C602       C1202   1.468       .  S
C603        H606   1.084       .  S
O607       Mg609   2.105       .  S
O607       Mg615   2.127       .  S
O607        C642   1.236       .  S
C608        H647   1.081       .  S
C608        O621   1.238       .  S
C608        O645   1.274       .  A
Mg609       O638   2.144       .  S
Mg609       O653   2.202       .  S
Mg609       O649   2.222       .  S
Mg609       O620   2.265       .  S
O610       Mg652   2.111       .  S
O610       Mg635   2.081       .  S
O610        C631   1.238       .  S
O611        C642   1.268       .  A
O611       Mg635   2.295       .  S
C612       C1237   1.426       .  S
C612        O614   1.260       .  A
C612        O626   1.256       .  A
O613        C641   1.271       .  A
O613       Mg615   2.305       .  S
O614       Mg646   2.207       .  S
Mg615       O621   2.091       .  S
Mg615       O629   2.221       .  S
Mg615       O617   2.209       .  S
C616       C1266   1.442       .  S
C616        O654   1.259       .  A
C616        O622   1.268       .  A
O617        C624   1.261       .  A
H618        C631   1.080       .  S
C619        H644   1.081       .  S
C619        O633   1.238       .  S
C619        O634   1.272       .  A
O620        C643   1.263       .  A
O621       Mg635   2.142       .  S
O622       Mg652   2.266       .  S
C623       C1250   1.440       .  S
C623        O636   1.264       .  A
C623        O628   1.261       .  A
C624       C1301   1.439       .  S
C624        O651   1.264       .  A
Mg625       O632   2.058       .  S
Mg625       O633   2.129       .  S
Mg625       O626   2.215       .  S
Mg625       O627   2.278       .  S
Mg625       O654   2.176       .  S
O627        C631   1.268       .  A
O628       Mg635   2.257       .  S
O629        C648   1.259       .  A
O630        C650   1.266       .  A
O630       Mg646   2.239       .  S
O632       Mg646   2.103       .  S
O632        C643   1.235       .  S
O633       Mg652   2.090       .  S
O634       Mg646   2.310       .  S
Mg635       O651   2.225       .  S
O636       Mg652   2.233       .  S
H637        C642   1.081       .  S
O638       Mg646   2.065       .  S
O638        C641   1.237       .  S
H639        C641   1.081       .  S
H640        C643   1.081       .  S
O645       Mg652   2.319       .  S
C648       C1285   1.428       .  S
C648        O653   1.255       .  A
O649        C650   1.266       .  A
C650       C1205   1.444       .  S
C655        C656   1.388       .  D
C655       C1186   1.530       .  S
C655       C1221   1.542       .  S
C656       C1154   1.537   1_545  S
C656       C1170   1.527   1_545  S
C657        C658   1.435       .  A
C657        C662   1.397       .  A
C657       C2821   1.512       .  S
C658        C659   1.436       .  A
C658        H663   1.081       .  S
C659        C660   1.400       .  A
C659       C1157   1.508       .  S
C660        C661   1.392       .  A
C660        H664   1.085       .  S
C661        C662   1.383       .  A
C661       C1138   1.459       .  S
C662        H665   1.087       .  S
C666        C667   1.434       .  A
C666        C671   1.399       .  A
C666       C1173   1.500       .  S
C667        C668   1.437       .  A
C667        H672   1.073       .  S
C668        C669   1.406       .  A
C668       C2613   1.540       .  S
C669        C670   1.387       .  A
C669        H673   1.084       .  S
C670        C671   1.378       .  A
C670       C1122   1.465       .  S
C671        H674   1.085       .  S
C675        C676   1.391       .  A
C675        C680   1.388       .  A
C675       C1109   1.463       .  S
C676        C677   1.399       .  A
C676        H681   1.084       .  S
C677        C678   1.435       .  A
C677       C2837   1.508       .  S
C678        C679   1.434       .  A
C678        H682   1.082       .  S
C679        C680   1.395       .  A
C679       C1090   1.507       .  S
C680        H683   1.087       .  S
C684        C685   1.444       .  A
C684        C689   1.404       .  A
C684       C1058   1.524       .  S
C685        C686   1.440       .  A
C685        H690   1.082       .  S
C686        C687   1.386       .  A
C686       C2533   1.502       .  S
C687        C688   1.370       .  A
C687        H691   1.087       .  S
C688        C689   1.385       .  A
C688       C1074   1.443       .  S
C689        H692   1.082       .  S
C693        C694   1.429       .  A
C693        C698   1.406       .  A
C693       C2181   1.510       .  S
C694        C695   1.423       .  A
C694        H699   1.082       .  S
C695        C696   1.396       .  A
C695       C2597   1.507       .  S
C696        C697   1.401       .  A
C696        H700   1.079       .  S
C697        C698   1.405       .  A
C697       C1045   1.501       .  S
C698        H701   1.080       .  S
C702        C703   1.435       .  A
C702        C707   1.406       .  A
C702       C2546   1.502       .  S
C703        C704   1.429       .  A
C703        H708   1.081       .  S
C704        C705   1.385       .  A
C704       C2197   1.493       .  S
C705        C706   1.377       .  A
C705        H709   1.088       .  S
C706        C707   1.385       .  A
C706       C1026   1.451       .  S
C707        H710   1.084       .  S
O711       Mg713   2.127       .  S
O711       Mg719   2.141       .  S
O711        C746   1.240       .  S
C712        H751   1.081       .  S
C712        O725   1.237       .  S
C712        O749   1.272       .  A
Mg713       O742   2.091       .  S
Mg713       O757   2.247       .  S
Mg713       O753   2.179       .  S
Mg713       O724   2.303       .  S
O714       Mg756   2.091       .  S
O714       Mg739   2.094       .  S
O714        C735   1.244       .  S
O715        C746   1.264       .  A
O715       Mg739   2.259       .  S
C716       C1042   1.472       .  S
C716        O718   1.275       .  A
C716        O730   1.273       .  A
O717        C745   1.273       .  A
O717       Mg719   2.322       .  S
O718       Mg750   2.262       .  S
Mg719       O725   2.091       .  S
Mg719       O733   2.269       .  S
Mg719       O721   2.269       .  S
C720       C1029   1.445       .  S
C720        O758   1.265       .  A
C720        O726   1.247       .  A
O721        C728   1.269       .  A
H722        C735   1.081       .  S
C723        H748   1.081       .  S
C723        O737   1.234       .  S
C723        O738   1.265       .  A
O724        C747   1.270       .  A
O725       Mg739   2.143       .  S
O726       Mg756   2.234       .  S
C727       C1077   1.447       .  S
C727        O740   1.262       .  A
C727        O732   1.264       .  A
C728       C1106   1.443       .  S
C728        O755   1.264       .  A
Mg729       O736   2.099       .  S
Mg729       O737   2.114       .  S
Mg729       O730   2.270       .  S
Mg729       O731   2.339       .  S
Mg729       O758   2.305       .  S
O731        C735   1.280       .  A
O732       Mg739   2.245       .  S
O733        C752   1.263       .  A
O734        C754   1.277       .  A
O734       Mg750   2.318       .  S
O736       Mg750   2.166       .  S
O736        C747   1.236       .  S
O737       Mg756   2.093       .  S
O738       Mg750   2.278       .  S
Mg739       O755   2.206       .  S
O740       Mg756   2.234       .  S
H741        C746   1.075       .  S
O742       Mg750   2.117       .  S
O742        C745   1.237       .  S
H743        C745   1.081       .  S
H744        C747   1.081       .  S
O749       Mg756   2.304       .  S
C752       C1141   1.459       .  S
C752        O757   1.256       .  A
O753        C754   1.258       .  A
C754       C1125   1.454       .  S
C759        C760   1.408   1_655  D
C759       C1061   1.534       .  S
C759       C1093   1.554       .  S
C760        C997   1.529       .  S
C760       C1010   1.543       .  S
C761        C762   1.427       .  A
C761        C766   1.399       .  A
C761       C1525   1.487       .  S
C762        C763   1.424       .  A
C762        H767   1.082       .  S
C763        C764   1.390       .  A
C763       C2965   1.490       .  S
C764        C765   1.384       .  A
C764        H768   1.087       .  S
C765        C766   1.383       .  A
C765        C978   1.453       .  S
C766        H769   1.086       .  S
C770        C771   1.444       .  A
C770        C775   1.411       .  A
C770       C1509   1.535       .  S
C771        C772   1.436       .  A
C771        H776   1.076       .  S
C772        C773   1.387       .  A
C772       C2629   1.500       .  S
C773        C774   1.373       .  A
C773        H777   1.081       .  S
C774        C775   1.385       .  A
C774        C962   1.453       .  S
C775        H778   1.084       .  S
C779        C780   1.404       .  A
C779        C784   1.431       .  A
C779       C3042   1.506       .  S
C780        C781   1.395       .  A
C780        H785   1.084       .  S
C781        C782   1.398       .  A
C781        C946   1.476       .  S
C782        C783   1.411       .  A
C782        H786   1.082       .  S
C783        C784   1.429       .  A
C783        C930   1.534       .  S
C784        H787   1.075       .  S
C788        C789   1.430       .  A
C788        C793   1.394       .  A
C788       C1013   1.497       .  S
C789        C790   1.433       .  A
C789        H794   1.082       .  S
C790        C791   1.393       .  A
C790       C3061   1.494       .  S
C791        C792   1.379       .  A
C791        H795   1.085       .  S
C792        C793   1.381       .  A
C792        C914   1.448       .  S
C793        H796   1.086       .  S
C797        C798   1.430       .  A
C797        C802   1.399       .  A
C797        C994   1.499       .  S
C798        C799   1.436       .  A
C798        H803   1.076       .  S
C799        C800   1.416       .  A
C799       C2946   1.536       .  S
C800        C801   1.399       .  A
C800        H804   1.083       .  S
C801        C802   1.387       .  A
C801        C901   1.482       .  S
C802        H805   1.083       .  S
C806        C807   1.431       .  A
C806        C811   1.405       .  A
C806       C2642   1.489       .  S
C807        C808   1.422       .  A
C807        H812   1.082       .  S
C808        C809   1.392       .  A
C808        C866   1.484       .  S
C809        C810   1.372       .  A
C809        H813   1.085       .  S
C810        C811   1.382       .  A
C810        C882   1.456       .  S
C811        H814   1.085       .  S
O815       Mg817   2.099       .  S
O815       Mg823   2.110       .  S
O815        C850   1.241       .  S
C816        H855   1.081       .  S
C816        O829   1.234       .  S
C816        O853   1.266       .  A
Mg817       O846   2.117       .  S
Mg817       O861   2.284       .  S
Mg817       O857   2.251       .  S
Mg817       O828   2.311       .  S
O818       Mg860   2.137       .  S
O818       Mg843   2.123       .  S
O818        C839   1.237       .  S
O819        C850   1.273       .  A
O819       Mg843   2.300       .  S
C820        C917   1.472       .  S
C820        O822   1.260       .  A
C820        O834   1.261       .  A
O821        C849   1.273       .  A
O821       Mg823   2.301       .  S
O822       Mg854   2.258       .  S
Mg823       O829   2.081       .  S
Mg823       O837   2.173       .  S
Mg823       O825   2.271       .  S
C824        C898   1.456       .  S
C824        O862   1.266       .  A
C824        O830   1.264       .  A
O825        C832   1.264       .  A
H826        C839   1.081       .  S
C827        H852   1.081       .  S
C827        O841   1.245       .  S
C827        O842   1.283       .  A
O828        C851   1.266       .  A
O829       Mg843   2.150       .  S
O830       Mg860   2.276       .  S
C831        C981   1.458       .  S
C831        O844   1.264       .  A
C831        O836   1.261       .  A
C832        C965   1.458       .  S
C832        O859   1.261       .  A
Mg833       O840   2.106       .  S
Mg833       O841   2.100       .  S
Mg833       O834   2.255       .  S
Mg833       O835   2.318       .  S
Mg833       O862   2.248       .  S
O835        C839   1.273       .  A
O836       Mg843   2.239       .  S
O837        C856   1.263       .  A
O838        C858   1.275       .  A
O838       Mg854   2.338       .  S
O840       Mg854   2.137       .  S
O840        C851   1.232       .  S
O841       Mg860   2.131       .  S
O842       Mg854   2.352       .  S
Mg843       O859   2.225       .  S
O844       Mg860   2.230       .  S
H845        C850   1.081       .  S
O846       Mg854   2.111       .  S
O846        C849   1.239       .  S
H847        C849   1.081       .  S
H848        C851   1.081       .  S
O853       Mg860   2.292       .  S
C856        C885   1.439       .  S
C856        O861   1.268       .  A
O857        C858   1.265       .  A
C858        C949   1.478       .  S
C863        C864   1.407       .  D
C863        C869   1.455   1_556  S
C863       C1925   1.552       .  S
C864        C933   1.541   1_556  S
C864       C1893   1.512       .  S
C865        C866   1.846       .  A
C865        C870   1.865       .  A
C865        H872   1.076       .  S
C866        C867   1.850       .  A
C867        C868   1.815       .  A
C867        C874   1.499   1_554  S
C868        C869   1.862       .  A
C868        H873   1.090   1_554  S
C869        C870   1.856       .  A
C870        C871   1.495       .  S
C871        F875   1.382       .  S
C871        F876   1.378       .  S
C871        F877   1.381       .  S
C874        F878   1.382   1_556  S
C874        F879   1.382   1_556  S
C874        F880   1.381       .  S
C881        C882   1.403       .  A
C881        C886   1.405       .  A
C881        H888   1.083       .  S
C882        C883   1.418       .  A
C883        C884   1.384       .  A
C883        C890   1.528       .  S
C884        C885   1.395       .  A
C884        H889   1.086       .  S
C885        C886   1.407       .  A
C886        C887   1.512       .  S
C887        F891   1.384       .  S
C887        F892   1.383       .  S
C887        F893   1.383       .  S
C890        F894   1.383       .  S
C890        F895   1.381       .  S
C890        F896   1.385       .  S
C897        C898   1.404       .  A
C897        C902   1.412       .  A
C897        H904   1.083       .  S
C898        C899   1.406       .  A
C899        C900   1.387       .  A
C899        C906   1.523       .  S
C900        C901   1.407       .  A
C900        H905   1.079       .  S
C901        C902   1.415       .  A
C902        C903   1.515       .  S
C903        F907   1.385       .  S
C903        F908   1.381       .  S
C903        F909   1.383       .  S
C906        F910   1.383       .  S
C906        F911   1.383       .  S
C906        F912   1.385       .  S
C913        C914   1.399       .  A
C913        C918   1.400       .  A
C913        H920   1.083       .  S
C914        C915   1.407       .  A
C915        C916   1.385       .  A
C915        C922   1.526       .  S
C916        C917   1.406       .  A
C916        H921   1.078       .  S
C917        C918   1.423       .  A
C918        C919   1.520       .  S
C919        F923   1.385       .  S
C919        F924   1.384       .  S
C919        F925   1.383       .  S
C922        F926   1.383       .  S
C922        F927   1.380       .  S
C922        F928   1.380       .  S
C929        C930   1.414       .  A
C929        C934   1.415       .  A
C929        H936   1.079       .  S
C930        C931   1.421       .  A
C931        C932   1.424       .  A
C931        C938   1.517       .  S
C932        C933   1.420       .  A
C932        H937   1.081       .  S
C933        C934   1.429       .  A
C934        C935   1.521       .  S
C935        F939   1.385       .  S
C935        F940   1.379       .  S
C935        F941   1.380       .  S
C938        F942   1.383       .  S
C938        F943   1.381       .  S
C938        F944   1.385       .  S
C945        C946   1.394       .  A
C945        C950   1.388       .  A
C945        H952   1.087       .  S
C946        C947   1.409       .  A
C947        C948   1.416       .  A
C947        C954   1.511       .  S
C948        C949   1.411       .  A
C948        H953   1.083       .  S
C949        C950   1.427       .  A
C950        C951   1.523       .  S
C951        F955   1.384       .  S
C951        F956   1.383       .  S
C951        F957   1.370       .  S
C954        F958   1.383       .  S
C954        F959   1.383       .  S
C954        F960   1.384       .  S
C961        C962   1.399       .  A
C961        C966   1.401       .  A
C961        H968   1.084       .  S
C962        C963   1.410       .  A
C963        C964   1.392       .  A
C963        C970   1.521       .  S
C964        C965   1.403       .  A
C964        H969   1.083       .  S
C965        C966   1.415       .  A
C966        C967   1.518       .  S
C967        F971   1.385       .  S
C967        F972   1.383       .  S
C967        F973   1.382       .  S
C970        F974   1.382       .  S
C970        F975   1.382       .  S
C970        F976   1.385       .  S
C977        C978   1.399       .  A
C977        C982   1.400       .  A
C977        H984   1.083       .  S
C978        C979   1.410       .  A
C979        C980   1.388       .  A
C979        C986   1.520       .  S
C980        C981   1.403       .  A
C980        H985   1.085       .  S
C981        C982   1.417       .  A
C982        C983   1.517       .  S
C983        F987   1.385       .  S
C983        F988   1.382       .  S
C983        F989   1.383       .  S
C986        F990   1.383       .  S
C986        F991   1.383       .  S
C986        F992   1.384       .  S
C993        C994   1.401       .  A
C993        C998   1.418       .  A
C993       H1000   1.085       .  S
C994        C995   1.418       .  A
C995        C996   1.411       .  A
C995       C1002   1.516       .  S
C996        C997   1.411       .  A
C996       H1001   1.084       .  S
C997        C998   1.435       .  A
C998        C999   1.515       .  S
C999       F1003   1.383       .  S
C999       F1004   1.371       .  S
C999       F1005   1.384       .  S
C1002      F1006   1.380       .  S
C1002      F1007   1.383       .  S
C1002      F1008   1.384       .  S
C1009      C1010   1.410       .  A
C1009      C1014   1.404       .  A
C1009      H1016   1.076       .  S
C1010      C1011   1.435       .  A
C1011      C1012   1.426       .  A
C1011      C1018   1.518       .  S
C1012      C1013   1.406       .  A
C1012      H1017   1.083       .  S
C1013      C1014   1.414       .  A
C1014      C1015   1.519       .  S
C1015      F1019   1.379       .  S
C1015      F1020   1.384       .  S
C1015      F1021   1.383       .  S
C1018      F1022   1.379       .  S
C1018      F1023   1.381       .  S
C1018      F1024   1.385       .  S
C1025      C1026   1.404       .  A
C1025      C1030   1.398       .  A
C1025      H1032   1.084       .  S
C1026      C1027   1.408       .  A
C1027      C1028   1.395       .  A
C1027      C1034   1.519       .  S
C1028      C1029   1.401       .  A
C1028      H1033   1.082       .  S
C1029      C1030   1.408       .  A
C1030      C1031   1.516       .  S
C1031      F1035   1.385       .  S
C1031      F1036   1.383       .  S
C1031      F1037   1.383       .  S
C1034      F1038   1.383       .  S
C1034      F1039   1.383       .  S
C1034      F1040   1.384       .  S
C1041      C1042   1.402       .  A
C1041      C1046   1.401       .  A
C1041      H1048   1.084       .  S
C1042      C1043   1.424       .  A
C1043      C1044   1.398       .  A
C1043      C1050   1.516       .  S
C1044      C1045   1.402       .  A
C1044      H1049   1.080       .  S
C1045      C1046   1.417       .  A
C1046      C1047   1.509       .  S
C1047      F1051   1.383       .  S
C1047      F1052   1.383       .  S
C1047      F1053   1.384       .  S
C1050      F1054   1.380       .  S
C1050      F1055   1.381       .  S
C1050      F1056   1.385       .  S
C1057      C1058   1.404       .  A
C1057      C1062   1.424       .  A
C1057      H1064   1.084       .  S
C1058      C1059   1.431       .  A
C1059      C1060   1.410       .  A
C1059      C1066   1.521       .  S
C1060      C1061   1.405       .  A
C1060      H1065   1.085       .  S
C1061      C1062   1.439       .  A
C1062      C1063   1.513       .  S
C1063      F1067   1.383   1_655  S
C1063      F1068   1.383       .  S
C1063      F1069   1.371       .  S
C1066      F1070   1.383       .  S
C1066      F1071   1.382       .  S
C1066      F1072   1.384       .  S
C1073      C1074   1.391       .  A
C1073      C1078   1.386       .  A
C1073      H1080   1.086       .  S
C1074      C1075   1.415       .  A
C1075      C1076   1.398       .  A
C1075      C1082   1.517       .  S
C1076      C1077   1.397       .  A
C1076      H1081   1.085       .  S
C1077      C1078   1.415       .  A
C1078      C1079   1.511       .  S
C1079      F1083   1.385       .  S
C1079      F1084   1.381       .  S
C1079      F1085   1.380       .  S
C1082      F1086   1.381       .  S
C1082      F1087   1.382       .  S
C1082      F1088   1.383       .  S
C1089      C1090   1.405       .  A
C1089      C1094   1.426       .  A
C1089      H1096   1.083       .  S
C1090      C1091   1.415       .  A
C1091      C1092   1.415       .  A
C1091      C1098   1.518   1_655  S
C1092      C1093   1.415       .  A
C1092      H1097   1.077   1_655  S
C1093      C1094   1.437       .  A
C1094      C1095   1.519       .  S
C1095      F1099   1.385       .  S
C1095      F1100   1.377       .  S
C1095      F1101   1.382       .  S
C1098      F1102   1.383       .  S
C1098      F1103   1.382   1_455  S
C1098      F1104   1.385       .  S
C1105      C1106   1.401       .  A
C1105      C1110   1.404       .  A
C1105      H1112   1.083       .  S
C1106      C1107   1.408       .  A
C1107      C1108   1.388       .  A
C1107      C1114   1.522       .  S
C1108      C1109   1.404       .  A
C1108      H1113   1.084       .  S
C1109      C1110   1.410       .  A
C1110      C1111   1.515       .  S
C1111      F1115   1.384       .  S
C1111      F1116   1.383       .  S
C1111      F1117   1.381       .  S
C1114      F1118   1.383       .  S
C1114      F1119   1.383       .  S
C1114      F1120   1.385       .  S
C1121      C1122   1.395       .  A
C1121      C1126   1.390       .  A
C1121      H1128   1.085       .  S
C1122      C1123   1.411       .  A
C1123      C1124   1.397       .  A
C1123      C1130   1.511       .  S
C1124      C1125   1.400       .  A
C1124      H1129   1.084       .  S
C1125      C1126   1.426       .  A
C1126      C1127   1.526       .  S
C1127      F1131   1.386       .  S
C1127      F1132   1.374       .  S
C1127      F1133   1.382       .  S
C1130      F1134   1.382       .  S
C1130      F1135   1.384       .  S
C1130      F1136   1.383       .  S
C1137      C1138   1.393       .  A
C1137      C1142   1.382       .  A
C1137      H1144   1.079       .  S
C1138      C1139   1.414       .  A
C1139      C1140   1.406       .  A
C1139      C1146   1.514       .  S
C1140      C1141   1.403       .  A
C1140      H1145   1.084       .  S
C1141      C1142   1.414       .  A
C1142      C1143   1.512       .  S
C1143      F1147   1.385       .  S
C1143      F1148   1.374       .  S
C1143      F1149   1.381       .  S
C1146      F1150   1.383       .  S
C1146      F1151   1.383       .  S
C1146      F1152   1.383       .  S
C1153      C1154   1.408       .  A
C1153      C1158   1.412       .  A
C1153      H1160   1.081       .  S
C1154      C1155   1.438       .  A
C1155      C1156   1.422       .  A
C1155      C1162   1.511   1_565  S
C1156      C1157   1.401       .  A
C1156      H1161   1.085       .  S
C1157      C1158   1.422       .  A
C1158      C1159   1.515       .  S
C1159      F1163   1.384       .  S
C1159      F1164   1.383       .  S
C1159      F1165   1.382       .  S
C1162      F1166   1.384   1_545  S
C1162      F1167   1.368       .  S
C1162      F1168   1.383       .  S
C1169      C1170   1.408       .  A
C1169      C1174   1.416       .  A
C1169      H1176   1.075       .  S
C1170      C1171   1.424       .  A
C1171      C1172   1.413       .  A
C1171      C1178   1.515       .  S
C1172      C1173   1.406       .  A
C1172      H1177   1.083       .  S
C1173      C1174   1.419       .  A
C1174      C1175   1.517       .  S
C1175      F1179   1.385       .  S
C1175      F1180   1.382       .  S
C1175      F1181   1.383       .  S
C1178      F1182   1.376   1_565  S
C1178      F1183   1.381       .  S
C1178      F1184   1.385       .  S
C1185      C1186   1.403       .  A
C1185      C1190   1.406       .  A
C1185      H1192   1.081       .  S
C1186      C1187   1.439       .  A
C1187      C1188   1.424       .  A
C1187      C1194   1.513       .  S
C1188      C1189   1.403       .  A
C1188      H1193   1.084       .  S
C1189      C1190   1.423       .  A
C1190      C1191   1.519       .  S
C1191      F1195   1.383       .  S
C1191      F1196   1.383       .  S
C1191      F1197   1.384       .  S
C1194      F1198   1.384       .  S
C1194      F1199   1.371       .  S
C1194      F1200   1.383       .  S
C1201      C1202   1.405       .  A
C1201      C1206   1.386       .  A
C1201      H1208   1.082       .  S
C1202      C1203   1.407       .  A
C1203      C1204   1.406       .  A
C1203      C1210   1.514       .  S
C1204      C1205   1.407       .  A
C1204      H1209   1.083       .  S
C1205      C1206   1.402       .  A
C1206      C1207   1.521       .  S
C1207      F1211   1.385       .  S
C1207      F1212   1.384       .  S
C1207      F1213   1.383       .  S
C1210      F1214   1.383       .  S
C1210      F1215   1.383       .  S
C1210      F1216   1.384       .  S
C1217      C1218   1.412       .  A
C1217      C1222   1.415       .  A
C1217      H1224   1.084       .  S
C1218      C1219   1.416       .  A
C1219      C1220   1.426       .  A
C1219      C1226   1.513       .  S
C1220      C1221   1.416       .  A
C1220      H1225   1.075       .  S
C1221      C1222   1.425       .  A
C1222      C1223   1.519       .  S
C1223      F1227   1.385       .  S
C1223      F1228   1.376       .  S
C1223      F1229   1.381       .  S
C1226      F1230   1.383       .  S
C1226      F1231   1.383       .  S
C1226      F1232   1.384       .  S
C1233      C1234   1.394       .  A
C1233      C1238   1.387       .  A
C1233      H1240   1.084       .  S
C1234      C1235   1.410       .  A
C1235      C1236   1.390       .  A
C1235      C1242   1.519       .  S
C1236      C1237   1.396       .  A
C1236      H1241   1.084       .  S
C1237      C1238   1.411       .  A
C1238      C1239   1.520       .  S
C1239      F1243   1.385       .  S
C1239      F1244   1.383       .  S
C1239      F1245   1.383       .  S
C1242      F1246   1.383       .  S
C1242      F1247   1.383       .  S
C1242      F1248   1.385       .  S
C1249      C1250   1.403       .  A
C1249      C1254   1.405       .  A
C1249      H1256   1.083       .  S
C1250      C1251   1.410       .  A
C1251      C1252   1.382       .  A
C1251      C1258   1.523       .  S
C1252      C1253   1.397       .  A
C1252      H1257   1.081       .  S
C1253      C1254   1.406       .  A
C1254      C1255   1.511       .  S
C1255      F1259   1.384       .  S
C1255      F1260   1.383       .  S
C1255      F1261   1.383       .  S
C1258      F1262   1.377       .  S
C1258      F1263   1.383       .  S
C1258      F1264   1.385       .  S
C1265      C1266   1.380       .  A
C1265      C1270   1.384       .  A
C1265      H1272   1.087       .  S
C1266      C1267   1.415       .  A
C1267      C1268   1.401       .  A
C1267      C1274   1.516       .  S
C1268      C1269   1.398       .  A
C1268      H1273   1.083       .  S
C1269      C1270   1.431       .  A
C1270      C1271   1.519       .  S
C1271      F1275   1.385       .  S
C1271      F1276   1.383       .  S
C1271      F1277   1.365       .  S
C1274      F1278   1.381       .  S
C1274      F1279   1.383       .  S
C1274      F1280   1.385       .  S
C1281      C1282   1.399       .  A
C1281      C1286   1.395       .  A
C1281      H1288   1.084       .  S
C1282      C1283   1.429       .  A
C1283      C1284   1.385       .  A
C1283      C1290   1.526       .  S
C1284      C1285   1.385       .  A
C1284      H1289   1.086       .  S
C1285      C1286   1.409       .  A
C1286      C1287   1.518       .  S
C1287      F1291   1.384       .  S
C1287      F1292   1.383       .  S
C1287      F1293   1.383       .  S
C1290      F1294   1.371       .  S
C1290      F1295   1.385       .  S
C1290      F1296   1.383       .  S
C1297      C1298   1.411       .  A
C1297      C1302   1.387       .  A
C1297      H1304   1.078       .  S
C1298      C1299   1.415       .  A
C1299      C1300   1.403       .  A
C1299      C1306   1.516       .  S
C1300      C1301   1.402       .  A
C1300      H1305   1.085       .  S
C1301      C1302   1.400       .  A
C1302      C1303   1.521       .  S
C1303      F1307   1.383       .  S
C1303      F1308   1.384       .  S
C1303      F1309   1.383       .  S
C1306      F1310   1.383       .  S
C1306      F1311   1.382       .  S
C1306      F1312   1.384       .  S
C1313      C1314   1.406       .  A
C1313      C1318   1.420       .  A
C1313      H1320   1.078       .  S
C1314      C1315   1.440       .  A
C1315      C1316   1.416       .  A
C1315      C1322   1.510   1_554  S
C1316      C1317   1.394       .  A
C1316      H1321   1.084       .  S
C1317      C1318   1.433       .  A
C1318      C1319   1.509       .  S
C1319      F1323   1.384       .  S
C1319      F1324   1.381       .  S
C1319      F1325   1.383       .  S
C1322      F1326   1.377       .  S
C1322      F1327   1.382       .  S
C1322      F1328   1.384   1_556  S
C1329      C1330   1.416       .  A
C1329      C1334   1.429       .  A
C1329      H1336   1.080       .  S
C1330      C1331   1.432       .  A
C1331      C1332   1.407       .  A
C1331      C1338   1.512       .  S
C1332      C1333   1.401       .  A
C1332      H1337   1.078       .  S
C1333      C1334   1.421       .  A
C1334      C1335   1.513       .  S
C1335      F1339   1.384       .  S
C1335      F1340   1.383       .  S
C1335      F1341   1.383       .  S
C1338      F1342   1.383       .  S
C1338      F1343   1.363       .  S
C1338      F1344   1.383       .  S
C1345      C1346   1.422       .  A
C1345      C1350   1.421       .  A
C1345      H1352   1.080   1_655  S
C1346      C1347   1.425       .  A
C1347      C1348   1.406       .  A
C1347      C1354   1.523       .  S
C1348      C1349   1.411       .  A
C1348      H1353   1.081       .  S
C1349      C1350   1.410       .  A
C1350      C1351   1.512       .  S
C1351      F1355   1.384   1_655  S
C1351      F1356   1.383       .  S
C1351      F1357   1.383       .  S
C1354      F1358   1.384       .  S
C1354      F1359   1.371       .  S
C1354      F1360   1.384       .  S
C1361      C1362   1.412       .  A
C1361      C1366   1.414       .  A
C1361      H1368   1.083       .  S
C1362      C1363   1.422       .  A
C1363      C1364   1.422       .  A
C1363      C1370   1.516       .  S
C1364      C1365   1.417       .  A
C1364      H1369   1.082   1_655  S
C1365      C1366   1.424       .  A
C1366      C1367   1.518       .  S
C1367      F1371   1.385       .  S
C1367      F1372   1.380       .  S
C1367      F1373   1.381       .  S
C1370      F1374   1.382       .  S
C1370      F1375   1.379       .  S
C1370      F1376   1.385       .  S
C1377      C1378   1.402       .  A
C1377      C1382   1.417       .  A
C1377      H1384   1.083       .  S
C1378      C1379   1.413       .  A
C1379      C1380   1.412       .  A
C1379      C1386   1.516       .  S
C1380      C1381   1.412       .  A
C1380      H1385   1.079       .  S
C1381      C1382   1.431       .  A
C1382      C1383   1.516       .  S
C1383      F1387   1.385       .  S
C1383      F1388   1.377       .  S
C1383      F1389   1.379       .  S
C1386      F1390   1.383       .  S
C1386      F1391   1.383       .  S
C1386      F1392   1.385       .  S
C1393      C1394   1.400       .  A
C1393      C1398   1.384       .  A
C1393      H1400   1.081       .  S
C1394      C1395   1.411       .  A
C1395      C1396   1.406       .  A
C1395      C1402   1.514       .  S
C1396      C1397   1.409       .  A
C1396      H1401   1.084       .  S
C1397      C1398   1.428       .  A
C1398      C1399   1.529       .  S
C1399      F1403   1.386       .  S
C1399      F1404   1.374       .  S
C1399      F1405   1.377       .  S
C1402      F1406   1.383       .  S
C1402      F1407   1.383       .  S
C1402      F1408   1.383       .  S
C1409      C1410   1.399       .  A
C1409      C1414   1.410       .  A
C1409      H1416   1.086       .  S
C1410      C1411   1.420       .  A
C1411      C1412   1.419       .  A
C1411      C1418   1.516       .  S
C1412      C1413   1.409       .  A
C1412      H1417   1.083       .  S
C1413      C1414   1.432       .  A
C1414      C1415   1.514       .  S
C1415      F1419   1.384       .  S
C1415      F1420   1.372       .  S
C1415      F1421   1.383       .  S
C1418      F1422   1.382       .  S
C1418      F1423   1.383       .  S
C1418      F1424   1.385       .  S
C1425      C1426   1.403       .  A
C1425      C1430   1.395       .  A
C1425      H1432   1.083       .  S
C1426      C1427   1.402       .  A
C1427      C1428   1.395       .  A
C1427      C1434   1.517       .  S
C1428      C1429   1.408       .  A
C1428      H1433   1.082       .  S
C1429      C1430   1.409       .  A
C1430      C1431   1.518       .  S
C1431      F1435   1.385       .  S
C1431      F1436   1.381       .  S
C1431      F1437   1.383       .  S
C1434      F1438   1.383       .  S
C1434      F1439   1.382       .  S
C1434      F1440   1.384       .  S
C1441      C1442   1.411       .  A
C1441      C1446   1.402       .  A
C1441      H1448   1.083       .  S
C1442      C1443   1.409       .  A
C1443      C1444   1.387       .  A
C1443      C1450   1.527       .  S
C1444      C1445   1.409       .  A
C1444      H1449   1.076       .  S
C1445      C1446   1.410       .  A
C1446      C1447   1.518       .  S
C1447      F1451   1.382       .  S
C1447      F1452   1.383       .  S
C1447      F1453   1.384       .  S
C1450      F1454   1.382       .  S
C1450      F1455   1.382       .  S
C1450      F1456   1.383       .  S
C1457      C1458   1.404       .  A
C1457      C1462   1.391       .  A
C1457      H1464   1.080       .  S
C1458      C1459   1.413       .  A
C1459      C1460   1.402       .  A
C1459      C1466   1.516       .  S
C1460      C1461   1.405       .  A
C1460      H1465   1.085       .  S
C1461      C1462   1.417       .  A
C1462      C1463   1.526       .  S
C1463      F1467   1.385       .  S
C1463      F1468   1.380       .  S
C1463      F1469   1.375       .  S
C1466      F1470   1.383       .  S
C1466      F1471   1.383       .  S
C1466      F1472   1.383       .  S
C1473      C1474   1.394       .  A
C1473      C1478   1.397       .  A
C1473      H1480   1.084       .  S
C1474      C1475   1.417       .  A
C1475      C1476   1.392       .  A
C1475      C1482   1.528       .  S
C1476      C1477   1.403       .  A
C1476      H1481   1.082       .  S
C1477      C1478   1.426       .  A
C1478      C1479   1.520       .  S
C1479      F1483   1.385       .  S
C1479      F1484   1.381       .  S
C1479      F1485   1.383       .  S
C1482      F1486   1.382       .  S
C1482      F1487   1.377       .  S
C1482      F1488   1.385       .  S
C1489      C1490   1.408       .  A
C1489      C1494   1.402       .  A
C1489      H1496   1.084       .  S
C1490      C1491   1.406       .  A
C1491      C1492   1.397       .  A
C1491      C1498   1.522       .  S
C1492      C1493   1.402       .  A
C1492      H1497   1.072       .  S
C1493      C1494   1.406       .  A
C1494      C1495   1.516       .  S
C1495      F1499   1.384       .  S
C1495      F1500   1.382       .  S
C1495      F1501   1.383       .  S
C1498      F1502   1.384       .  S
C1498      F1503   1.380       .  S
C1498      F1504   1.381       .  S
C1505      C1506   1.419       .  A
C1505      C1510   1.430       .  A
C1505      H1512   1.082   1_565  S
C1506      C1507   1.426       .  A
C1507      C1508   1.404       .  A
C1507      C1514   1.525       .  S
C1508      C1509   1.414       .  A
C1508      H1513   1.082       .  S
C1509      C1510   1.424       .  A
C1510      C1511   1.514       .  S
C1511      F1515   1.385   1_565  S
C1511      F1516   1.381   1_565  S
C1511      F1517   1.383       .  S
C1514      F1518   1.385       .  S
C1514      F1519   1.369       .  S
C1514      F1520   1.383       .  S
C1521      C1522   1.415       .  A
C1521      C1526   1.407       .  A
C1521      H1528   1.069   1_565  S
C1522      C1523   1.425       .  A
C1523      C1524   1.416       .  A
C1523      C1530   1.514       .  S
C1524      C1525   1.406       .  A
C1524      H1529   1.084       .  S
C1525      C1526   1.409       .  A
C1526      C1527   1.518       .  S
C1527      F1531   1.385   1_565  S
C1527      F1532   1.383       .  S
C1527      F1533   1.383       .  S
C1530      F1534   1.385       .  S
C1530      F1535   1.383   1_565  S
C1530      F1536   1.381       .  S
C1537      C1538   1.418       .  A
C1537      C1542   1.429       .  A
C1537      H1544   1.083       .  S
C1538      C1539   1.426       .  A
C1539      C1540   1.409       .  A
C1539      C1546   1.518       .  S
C1540      C1541   1.407       .  A
C1540      H1545   1.083       .  S
C1541      C1542   1.417       .  A
C1542      C1543   1.512       .  S
C1543      F1547   1.384       .  S
C1543      F1548   1.383       .  S
C1543      F1549   1.383       .  S
C1546      F1550   1.377       .  S
C1546      F1551   1.380       .  S
C1546      F1552   1.383       .  S
C1553      C1554   1.414       .  A
C1553      C1558   1.422       .  A
C1553      H1560   1.084       .  S
C1554      C1555   1.435       .  A
C1555      C1556   1.406       .  A
C1555      C1562   1.512       .  S
C1556      C1557   1.398       .  A
C1556      H1561   1.086       .  S
C1557      C1558   1.422       .  A
C1558      C1559   1.514       .  S
C1559      F1563   1.383       .  S
C1559      F1564   1.383       .  S
C1559      F1565   1.381       .  S
C1562      F1566   1.364       .  S
C1562      F1567   1.382       .  S
C1562      F1568   1.384       .  S
C1569      C1570   1.406       .  A
C1569      C1574   1.412       .  A
C1569      H1576   1.082       .  S
C1570      C1571   1.429       .  A
C1571      C1572   1.419       .  A
C1571      C1578   1.514       .  S
C1572      C1573   1.406       .  A
C1572      H1577   1.085       .  S
C1573      C1574   1.422       .  A
C1574      C1575   1.512       .  S
C1575      F1579   1.383       .  S
C1575      F1580   1.382       .  S
C1575      F1581   1.383       .  S
C1578      F1582   1.378       .  S
C1578      F1583   1.382       .  S
C1578      F1584   1.383       .  S
C1585      C1586   1.409       .  A
C1585      C1590   1.414       .  A
C1585      H1592   1.081       .  S
C1586      C1587   1.429       .  A
C1587      C1588   1.416       .  A
C1587      C1594   1.516       .  S
C1588      C1589   1.404       .  A
C1588      H1593   1.085       .  S
C1589      C1590   1.421       .  A
C1590      C1591   1.515       .  S
C1591      F1595   1.384       .  S
C1591      F1596   1.383       .  S
C1591      F1597   1.382       .  S
C1594      F1598   1.384       .  S
C1594      F1599   1.374       .  S
C1594      F1600   1.382   1_554  S
C1601      C1602   1.407       .  A
C1601      C1606   1.422       .  A
C1601      H1608   1.083       .  S
C1602      C1603   1.415       .  A
C1603      C1604   1.417       .  A
C1603      C1610   1.519       .  S
C1604      C1605   1.413       .  A
C1604      H1609   1.075       .  S
C1605      C1606   1.427       .  A
C1606      C1607   1.512       .  S
C1607      F1611   1.384       .  S
C1607      F1612   1.378       .  S
C1607      F1613   1.381       .  S
C1610      F1614   1.383       .  S
C1610      F1615   1.380       .  S
C1610      F1616   1.384       .  S
C1617      C1618   1.404       .  A
C1617      C1622   1.403       .  A
C1617      H1624   1.083       .  S
C1618      C1619   1.412       .  A
C1619      C1620   1.393       .  A
C1619      C1626   1.524       .  S
C1620      C1621   1.404       .  A
C1620      H1625   1.081       .  S
C1621      C1622   1.408       .  A
C1622      C1623   1.514       .  S
C1623      F1627   1.384       .  S
C1623      F1628   1.383       .  S
C1623      F1629   1.382       .  S
C1626      F1630   1.381       .  S
C1626      F1631   1.384       .  S
C1626      F1632   1.384       .  S
C1633      C1634   1.406       .  A
C1633      C1638   1.406       .  A
C1633      H1640   1.077       .  S
C1634      C1635   1.437       .  A
C1635      C1636   1.420       .  A
C1635      C1642   1.516       .  S
C1636      C1637   1.403       .  A
C1636      H1641   1.085       .  S
C1637      C1638   1.419       .  A
C1638      C1639   1.518       .  S
C1639      F1643   1.383       .  S
C1639      F1644   1.382       .  S
C1639      F1645   1.382       .  S
C1642      F1646   1.383       .  S
C1642      F1647   1.374       .  S
C1642      F1648   1.383       .  S
C1649      C1650   1.394       .  A
C1649      C1654   1.385       .  A
C1649      H1656   1.081       .  S
C1650      C1651   1.414       .  A
C1651      C1652   1.400       .  A
C1651      C1658   1.513       .  S
C1652      C1653   1.398       .  A
C1652      H1657   1.085       .  S
C1653      C1654   1.415       .  A
C1654      C1655   1.515       .  S
C1655      F1659   1.385       .  S
C1655      F1660   1.376       .  S
C1655      F1661   1.382       .  S
C1658      F1662   1.382       .  S
C1658      F1663   1.382       .  S
C1658      F1664   1.383       .  S
C1665      C1666   1.404       .  A
C1665      C1670   1.402       .  A
C1665      H1672   1.083       .  S
C1666      C1667   1.417       .  A
C1667      C1668   1.390       .  A
C1667      C1674   1.525       .  S
C1668      C1669   1.396       .  A
C1668      H1673   1.083       .  S
C1669      C1670   1.406       .  A
C1670      C1671   1.513       .  S
C1671      F1675   1.384       .  S
C1671      F1676   1.383       .  S
C1671      F1677   1.383       .  S
C1674      F1678   1.381       .  S
C1674      F1679   1.379       .  S
C1674      F1680   1.385       .  S
C1681      C1682   1.410       .  A
C1681      C1686   1.402       .  A
C1681      H1688   1.083       .  S
C1682      C1683   1.406       .  A
C1683      C1684   1.392       .  A
C1683      C1690   1.519       .  S
C1684      C1685   1.406       .  A
C1684      H1689   1.073       .  S
C1685      C1686   1.413       .  A
C1686      C1687   1.519       .  S
C1687      F1691   1.385       .  S
C1687      F1692   1.383       .  S
C1687      F1693   1.383       .  S
C1690      F1694   1.383       .  S
C1690      F1695   1.382       .  S
C1690      F1696   1.384       .  S
C1697      C1698   1.403       .  A
C1697      C1702   1.417       .  A
C1697      H1704   1.081       .  S
C1698      C1699   1.416       .  A
C1699      C1700   1.424       .  A
C1699      C1706   1.515       .  S
C1700      C1701   1.420       .  A
C1700      H1705   1.081       .  S
C1701      C1702   1.435       .  A
C1702      C1703   1.522       .  S
C1703      F1707   1.384       .  S
C1703      F1708   1.376       .  S
C1703      F1709   1.380       .  S
C1706      F1710   1.382       .  S
C1706      F1711   1.383       .  S
C1706      F1712   1.385       .  S
C1713      C1714   1.408       .  A
C1713      C1718   1.412       .  A
C1713      H1720   1.083       .  S
C1714      C1715   1.410       .  A
C1715      C1716   1.389       .  A
C1715      C1722   1.523       .  S
C1716      C1717   1.397       .  A
C1716      H1721   1.073       .  S
C1717      C1718   1.409       .  A
C1718      C1719   1.511       .  S
C1719      F1723   1.384       .  S
C1719      F1724   1.384       .  S
C1719      F1725   1.383       .  S
C1722      F1726   1.378       .  S
C1722      F1727   1.382       .  S
C1722      F1728   1.383       .  S
C1729      C1730   1.410       .  A
C1729      C1734   1.414       .  A
C1729      H1736   1.085       .  S
C1730      C1731   1.414       .  A
C1731      C1732   1.410       .  A
C1731      C1738   1.519       .  S
C1732      C1733   1.413       .  A
C1732      H1737   1.080       .  S
C1733      C1734   1.426       .  A
C1734      C1735   1.518       .  S
C1735      F1739   1.383       .  S
C1735      F1740   1.374       .  S
C1735      F1741   1.383       .  S
C1738      F1742   1.383       .  S
C1738      F1743   1.383       .  S
C1738      F1744   1.383       .  S
C1745      C1746   1.395       .  A
C1745      C1750   1.386       .  A
C1745      H1752   1.086       .  S
C1746      C1747   1.407       .  A
C1747      C1748   1.394       .  A
C1747      C1754   1.517       .  S
C1748      C1749   1.402       .  A
C1748      H1753   1.083       .  S
C1749      C1750   1.415       .  A
C1750      C1751   1.519       .  S
C1751      F1755   1.385       .  S
C1751      F1756   1.383       .  S
C1751      F1757   1.384       .  S
C1754      F1758   1.383       .  S
C1754      F1759   1.383       .  S
C1754      F1760   1.384       .  S
C1761      C1762   1.417       .  A
C1761      C1766   1.427       .  A
C1761      H1768   1.082       .  S
C1762      C1763   1.414       .  A
C1763      C1764   1.404       .  A
C1763      C1770   1.524       .  S
C1764      C1765   1.417       .  A
C1764      H1769   1.082       .  S
C1765      C1766   1.427       .  A
C1766      C1767   1.514       .  S
C1767      F1771   1.385       .  S
C1767      F1772   1.382       .  S
C1767      F1773   1.383       .  S
C1770      F1774   1.372       .  S
C1770      F1775   1.381       .  S
C1770      F1776   1.385       .  S
C1777      C1778   1.407       .  A
C1777      C1782   1.407       .  A
C1777      H1784   1.085       .  S
C1778      C1779   1.439       .  A
C1779      C1780   1.421       .  A
C1779      C1786   1.516       .  S
C1780      C1781   1.403       .  A
C1780      H1785   1.084       .  S
C1781      C1782   1.422       .  A
C1782      C1783   1.516       .  S
C1783      F1787   1.384       .  S
C1783      F1788   1.383       .  S
C1783      F1789   1.383       .  S
C1786      F1790   1.384       .  S
C1786      F1791   1.372       .  S
C1786      F1792   1.382   1_545  S
C1793      C1794   1.398       .  A
C1793      C1798   1.401       .  A
C1793      H1800   1.082       .  S
C1794      C1795   1.410       .  A
C1795      C1796   1.402       .  A
C1795      C1802   1.513       .  S
C1796      C1797   1.410       .  A
C1796      H1801   1.083       .  S
C1797      C1798   1.426       .  A
C1798      C1799   1.520       .  S
C1799      F1803   1.379       .  S
C1799      F1804   1.382       .  S
C1799      F1805   1.380       .  S
C1802      F1806   1.382       .  S
C1802      F1807   1.383       .  S
C1802      F1808   1.385       .  S
C1809      C1810   1.412       .  A
C1809      C1814   1.403       .  A
C1809      H1816   1.077       .  S
C1810      C1811   1.396       .  A
C1811      C1812   1.390       .  A
C1811      C1818   1.520       .  S
C1812      C1813   1.406       .  A
C1812      H1817   1.073       .  S
C1813      C1814   1.401       .  A
C1814      C1815   1.514       .  S
C1815      F1819   1.385       .  S
C1815      F1820   1.382       .  S
C1815      F1821   1.382       .  S
C1818      F1822   1.383       .  S
C1818      F1823   1.383       .  S
C1818      F1824   1.383       .  S
C1825      C1826   1.404       .  A
C1825      C1830   1.429       .  A
C1825      H1832   1.083       .  S
C1826      C1827   1.431       .  A
C1827      C1828   1.397       .  A
C1827      C1834   1.520       .  S
C1828      C1829   1.404       .  A
C1828      H1833   1.081       .  S
C1829      C1830   1.438       .  A
C1830      C1831   1.511   1_565  S
C1831      F1835   1.384   1_545  S
C1831      F1836   1.382       .  S
C1831      F1837   1.380       .  S
C1834      F1838   1.385       .  S
C1834      F1839   1.382       .  S
C1834      F1840   1.383       .  S
C1841      C1842   1.400       .  A
C1841      C1846   1.399       .  A
C1841      H1848   1.082       .  S
C1842      C1843   1.413       .  A
C1843      C1844   1.389       .  A
C1843      C1850   1.525       .  S
C1844      C1845   1.399       .  A
C1844      H1849   1.083       .  S
C1845      C1846   1.413       .  A
C1846      C1847   1.517       .  S
C1847      F1851   1.385       .  S
C1847      F1852   1.383       .  S
C1847      F1853   1.382       .  S
C1850      F1854   1.382       .  S
C1850      F1855   1.380       .  S
C1850      F1856   1.384       .  S
C1857      C1858   1.403       .  A
C1857      C1862   1.414       .  A
C1857      H1864   1.082       .  S
C1858      C1859   1.417       .  A
C1859      C1860   1.423       .  A
C1859      C1866   1.513       .  S
C1860      C1861   1.413       .  A
C1860      H1865   1.083       .  S
C1861      C1862   1.430       .  A
C1862      C1863   1.518       .  S
C1863      F1867   1.384       .  S
C1863      F1868   1.381       .  S
C1863      F1869   1.365   1_565  S
C1866      F1870   1.383       .  S
C1866      F1871   1.383       .  S
C1866      F1872   1.384       .  S
C1873      C1874   1.403       .  A
C1873      C1878   1.400       .  A
C1873      H1880   1.084       .  S
C1874      C1875   1.416       .  A
C1875      C1876   1.386       .  A
C1875      C1882   1.520       .  S
C1876      C1877   1.398       .  A
C1876      H1881   1.083       .  S
C1877      C1878   1.415       .  A
C1878      C1879   1.519       .  S
C1879      F1883   1.385       .  S
C1879      F1884   1.381       .  S
C1879      F1885   1.383       .  S
C1882      F1886   1.379       .  S
C1882      F1887   1.383       .  S
C1882      F1888   1.385       .  S
C1889      C1890   1.411       .  A
C1889      C1894   1.423       .  A
C1889      H1896   1.084       .  S
C1890      C1891   1.422       .  A
C1891      C1892   1.403       .  A
C1891      C1898   1.520       .  S
C1892      C1893   1.407       .  A
C1892      H1897   1.081       .  S
C1893      C1894   1.426       .  A
C1894      C1895   1.515       .  S
C1895      F1899   1.383       .  S
C1895      F1900   1.380       .  S
C1895      F1901   1.383       .  S
C1898      F1902   1.382       .  S
C1898      F1903   1.381       .  S
C1898      F1904   1.383       .  S
C1905      C1906   1.408       .  A
C1905      C1910   1.396       .  A
C1905      H1912   1.075       .  S
C1906      C1907   1.419       .  A
C1907      C1908   1.402       .  A
C1907      C1914   1.522       .  S
C1908      C1909   1.406       .  A
C1908      H1913   1.085       .  S
C1909      C1910   1.407       .  A
C1910      C1911   1.515       .  S
C1911      F1915   1.384       .  S
C1911      F1916   1.383       .  S
C1911      F1917   1.383       .  S
C1914      F1918   1.383       .  S
C1914      F1919   1.381       .  S
C1914      F1920   1.382       .  S
C1921      C1922   1.385       .  A
C1921      C1926   1.423       .  A
C1921      H1928   1.081       .  S
C1922      C1923   1.426       .  A
C1923      C1924   1.423       .  A
C1923      C1930   1.513       .  S
C1924      C1925   1.410       .  A
C1924      H1929   1.078       .  S
C1925      C1926   1.467       .  A
C1926      C1927   1.619   1_556  S
C1927      F1931   1.415       .  S
C1927      F1932   1.414       .  S
C1927      F1933   2.417       .  S
C1930      F1934   1.383       .  S
C1930      F1935   1.382       .  S
C1930      F1936   1.383       .  S
C1937      C1938   1.405       .  A
C1937      C1942   1.409       .  A
C1937      H1944   1.083       .  S
C1938      C1939   1.414       .  A
C1939      C1940   1.389       .  A
C1939      C1946   1.527       .  S
C1940      C1941   1.399       .  A
C1940      H1945   1.076       .  S
C1941      C1942   1.413       .  A
C1942      C1943   1.515       .  S
C1943      F1947   1.385       .  S
C1943      F1948   1.382       .  S
C1943      F1949   1.383       .  S
C1946      F1950   1.381       .  S
C1946      F1951   1.380       .  S
C1946      F1952   1.382       .  S
C1953      C1954   1.399       .  A
C1953      C1958   1.390       .  A
C1953      H1960   1.084       .  S
C1954      C1955   1.412       .  A
C1955      C1956   1.391       .  A
C1955      C1962   1.513       .  S
C1956      C1957   1.392       .  A
C1956      H1961   1.085       .  S
C1957      C1958   1.411       .  A
C1958      C1959   1.521       .  S
C1959      F1963   1.385       .  S
C1959      F1964   1.383       .  S
C1959      F1965   1.383       .  S
C1962      F1966   1.380       .  S
C1962      F1967   1.383       .  S
C1962      F1968   1.383       .  S
C1969      C1970   1.408       .  A
C1969      C1974   1.407       .  A
C1969      H1976   1.083       .  S
C1970      C1971   1.427       .  A
C1971      C1972   1.388       .  A
C1971      C1978   1.527       .  S
C1972      C1973   1.393       .  A
C1972      H1977   1.084       .  S
C1973      C1974   1.410       .  A
C1974      C1975   1.515       .  S
C1975      F1979   1.385       .  S
C1975      F1980   1.383       .  S
C1975      F1981   1.382       .  S
C1978      F1982   1.381       .  S
C1978      F1983   1.378       .  S
C1978      F1984   1.385       .  S
C1985      C1986   1.406       .  A
C1985      C1990   1.416       .  A
C1985      H1992   1.084       .  S
C1986      C1987   1.420       .  A
C1987      C1988   1.431       .  A
C1987      C1994   1.514       .  S
C1988      C1989   1.421       .  A
C1988      H1993   1.073       .  S
C1989      C1990   1.433       .  A
C1990      C1991   1.520       .  S
C1991      F1995   1.385       .  S
C1991      F1996   1.383       .  S
C1991      F1997   1.369   1_655  S
C1994      F1998   1.382       .  S
C1994      F1999   1.383       .  S
C1994      F2000   1.384       .  S
C2001      C2002   1.401       .  A
C2001      C2006   1.394       .  A
C2001      H2008   1.084       .  S
C2002      C2003   1.418       .  A
C2003      C2004   1.383       .  A
C2003      C2010   1.525       .  S
C2004      C2005   1.390       .  A
C2004      H2009   1.084       .  S
C2005      C2006   1.405       .  A
C2006      C2007   1.515       .  S
C2007      F2011   1.384       .  S
C2007      F2012   1.384       .  S
C2007      F2013   1.383       .  S
C2010      F2014   1.381       .  S
C2010      F2015   1.381       .  S
C2010      F2016   1.385       .  S
C2017      C2018   1.403       .  A
C2017      C2022   1.410       .  A
C2017      H2024   1.086       .  S
C2018      C2019   1.421       .  A
C2019      C2020   1.425       .  A
C2019      C2026   1.512       .  S
C2020      C2021   1.417       .  A
C2020      H2025   1.076       .  S
C2021      C2022   1.432       .  A
C2022      C2023   1.513       .  S
C2023      F2027   1.383       .  S
C2023      F2028   1.383   1_655  S
C2023      F2029   1.360   1_655  S
C2026      F2030   1.382       .  S
C2026      F2031   1.383       .  S
C2026      F2032   1.383       .  S
C2033      C2034   1.393       .  A
C2033      C2038   1.385       .  A
C2033      H2040   1.084       .  S
C2034      C2035   1.415       .  A
C2035      C2036   1.393       .  A
C2035      C2042   1.519       .  S
C2036      C2037   1.397       .  A
C2036      H2041   1.085       .  S
C2037      C2038   1.420       .  A
C2038      C2039   1.522       .  S
C2039      F2043   1.386       .  S
C2039      F2044   1.379       .  S
C2039      F2045   1.380       .  S
C2042      F2046   1.383       .  S
C2042      F2047   1.382       .  S
C2042      F2048   1.384       .  S
C2049      C2050   1.407       .  A
C2049      C2054   1.426       .  A
C2049      H2056   1.084       .  S
C2050      C2051   1.424       .  A
C2051      C2052   1.411       .  A
C2051      C2058   1.516       .  S
C2052      C2053   1.404       .  A
C2052      H2057   1.079       .  S
C2053      C2054   1.435       .  A
C2054      C2055   1.514       .  S
C2055      F2059   1.383       .  S
C2055      F2060   1.376       .  S
C2055      F2061   1.384       .  S
C2058      F2062   1.382       .  S
C2058      F2063   1.381       .  S
C2058      F2064   1.382       .  S
C2065      C2066   1.403       .  A
C2065      C2070   1.385       .  A
C2065      H2072   1.083       .  S
C2066      C2067   1.403       .  A
C2067      C2068   1.391       .  A
C2067      C2074   1.522       .  S
C2068      C2069   1.403       .  A
C2068      H2073   1.077       .  S
C2069      C2070   1.399       .  A
C2070      C2071   1.517       .  S
C2071      F2075   1.384       .  S
C2071      F2076   1.383       .  S
C2071      F2077   1.382       .  S
C2074      F2078   1.382       .  S
C2074      F2079   1.383       .  S
C2074      F2080   1.383       .  S
C2081      C2082   1.397       .  A
C2081      C2086   1.413       .  A
C2081      H2088   1.083       .  S
C2082      C2083   1.425       .  A
C2083      C2084   1.426       .  A
C2083      C2090   1.515       .  S
C2084      C2085   1.410       .  A
C2084      H2089   1.079       .  S
C2085      C2086   1.437       .  A
C2086      C2087   1.518       .  S
C2087      F2091   1.385       .  S
C2087      F2092   1.382       .  S
C2087      F2093   1.372   1_556  S
C2090      F2094   1.383       .  S
C2090      F2095   1.383       .  S
C2090      F2096   1.384       .  S
C2097      C2098   1.407       .  A
C2097      C2102   1.403       .  A
C2097      H2104   1.082       .  S
C2098      C2099   1.407       .  A
C2099      C2100   1.407       .  A
C2099      C2106   1.523       .  S
C2100      C2101   1.409       .  A
C2100      H2105   1.078       .  S
C2101      C2102   1.414       .  A
C2102      C2103   1.519       .  S
C2103      F2107   1.385       .  S
C2103      F2108   1.380       .  S
C2103      F2109   1.383       .  S
C2106      F2110   1.384       .  S
C2106      F2111   1.379       .  S
C2106      F2112   1.376       .  S
C2113      C2114   1.398       .  A
C2113      C2118   1.402       .  A
C2113      H2120   1.080       .  S
C2114      C2115   1.440       .  A
C2115      C2116   1.426       .  A
C2115      C2122   1.514       .  S
C2116      C2117   1.404       .  A
C2116      H2121   1.084       .  S
C2117      C2118   1.428       .  A
C2118      C2119   1.513       .  S
C2119      F2123   1.386       .  S
C2119      F2124   1.378       .  S
C2119      F2125   1.378       .  S
C2122      F2126   1.384       .  S
C2122      F2127   1.371       .  S
C2122      F2128   1.383       .  S
C2129      C2130   1.414       .  A
C2129      C2134   1.412       .  A
C2129      H2136   1.080       .  S
C2130      C2131   1.428       .  A
C2131      C2132   1.413       .  A
C2131      C2138   1.513       .  S
C2132      C2133   1.402       .  A
C2132      H2137   1.085       .  S
C2133      C2134   1.416       .  A
C2134      C2135   1.517       .  S
C2135      F2139   1.382       .  S
C2135      F2140   1.382       .  S
C2135      F2141   1.384       .  S
C2138      F2142   1.383       .  S
C2138      F2143   1.369       .  S
C2138      F2144   1.384       .  S
C2145      C2146   1.412       .  A
C2145      C2150   1.415       .  A
C2145      H2152   1.083       .  S
C2146      C2147   1.419       .  A
C2147      C2148   1.426       .  A
C2147      C2154   1.515       .  S
C2148      C2149   1.418       .  A
C2148      H2153   1.081       .  S
C2149      C2150   1.428       .  A
C2150      C2151   1.526       .  S
C2151      F2155   1.385       .  S
C2151      F2156   1.374       .  S
C2151      F2157   1.381       .  S
C2154      F2158   1.382       .  S
C2154      F2159   1.383       .  S
C2154      F2160   1.384       .  S
C2161      C2162   1.401       .  A
C2161      C2166   1.406       .  A
C2161      H2168   1.086       .  S
C2162      C2163   1.418       .  A
C2163      C2164   1.425       .  A
C2163      C2170   1.514       .  S
C2164      C2165   1.416       .  A
C2164      H2169   1.082       .  S
C2165      C2166   1.433       .  A
C2166      C2167   1.516       .  S
C2167      F2171   1.380       .  S
C2167      F2172   1.368       .  S
C2167      F2173   1.382       .  S
C2170      F2174   1.383       .  S
C2170      F2175   1.383       .  S
C2170      F2176   1.384       .  S
C2177      C2178   1.410       .  A
C2177      C2182   1.414       .  A
C2177      H2184   1.077       .  S
C2178      C2179   1.437       .  A
C2179      C2180   1.420       .  A
C2179      C2186   1.510       .  S
C2180      C2181   1.401       .  A
C2180      H2185   1.085       .  S
C2181      C2182   1.421       .  A
C2182      C2183   1.517       .  S
C2183      F2187   1.384       .  S
C2183      F2188   1.383       .  S
C2183      F2189   1.383       .  S
C2186      F2190   1.385       .  S
C2186      F2191   1.364       .  S
C2186      F2192   1.382       .  S
C2193      C2194   1.415       .  A
C2193      C2198   1.420       .  A
C2193      H2200   1.078       .  S
C2194      C2195   1.441       .  A
C2195      C2196   1.411       .  A
C2195      C2202   1.513       .  S
C2196      C2197   1.398       .  A
C2196      H2201   1.086       .  S
C2197      C2198   1.417       .  A
C2198      C2199   1.515       .  S
C2199      F2203   1.384       .  S
C2199      F2204   1.383       .  S
C2199      F2205   1.383       .  S
C2202      F2206   1.360   1_554  S
C2202      F2207   1.383   1_554  S
C2202      F2208   1.384       .  S
C2209      C2210   1.403       .  A
C2209      C2214   1.417       .  A
C2209      H2216   1.082       .  S
C2210      C2211   1.417       .  A
C2211      C2212   1.420       .  A
C2211      C2218   1.516       .  S
C2212      C2213   1.417       .  A
C2212      H2217   1.082   1_565  S
C2213      C2214   1.433       .  A
C2214      C2215   1.519       .  S
C2215      F2219   1.384       .  S
C2215      F2220   1.369       .  S
C2215      F2221   1.382       .  S
C2218      F2222   1.383       .  S
C2218      F2223   1.383       .  S
C2218      F2224   1.384   1_565  S
C2225      C2226   1.407       .  A
C2225      C2230   1.413       .  A
C2225      H2232   1.083       .  S
C2226      C2227   1.417       .  A
C2227      C2228   1.383       .  A
C2227      C2234   1.524       .  S
C2228      C2229   1.391       .  A
C2228      H2233   1.070       .  S
C2229      C2230   1.409       .  A
C2230      C2231   1.510       .  S
C2231      F2235   1.384       .  S
C2231      F2236   1.383       .  S
C2231      F2237   1.383       .  S
C2234      F2238   1.378       .  S
C2234      F2239   1.377       .  S
C2234      F2240   1.385       .  S
C2241      C2242   1.398       .  A
C2241      C2246   1.419       .  A
C2241      H2248   1.084       .  S
C2242      C2243   1.425       .  A
C2243      C2244   1.411       .  A
C2243      C2250   1.517       .  S
C2244      C2245   1.406       .  A
C2244      H2249   1.084       .  S
C2245      C2246   1.443       .  A
C2246      C2247   1.514   1_565  S
C2247      F2251   1.384   1_545  S
C2247      F2252   1.365       .  S
C2247      F2253   1.383       .  S
C2250      F2254   1.383       .  S
C2250      F2255   1.383       .  S
C2250      F2256   1.384       .  S
C2257      C2258   1.404       .  A
C2257      C2262   1.406       .  A
C2257      H2264   1.083       .  S
C2258      C2259   1.413       .  A
C2259      C2260   1.394       .  A
C2259      C2266   1.523       .  S
C2260      C2261   1.398       .  A
C2260      H2265   1.074       .  S
C2261      C2262   1.408       .  A
C2262      C2263   1.512       .  S
C2263      F2267   1.384       .  S
C2263      F2268   1.384       .  S
C2263      F2269   1.383       .  S
C2266      F2270   1.382       .  S
C2266      F2271   1.377       .  S
C2266      F2272   1.384       .  S
C2273      C2274   1.405       .  A
C2273      C2278   1.424       .  A
C2273      H2280   1.084       .  S
C2274      C2275   1.422       .  A
C2275      C2276   1.407       .  A
C2275      C2282   1.520       .  S
C2276      C2277   1.405       .  A
C2276      H2281   1.077       .  S
C2277      C2278   1.433       .  A
C2278      C2279   1.512       .  S
C2279      F2283   1.383       .  S
C2279      F2284   1.372   1_655  S
C2279      F2285   1.383   1_655  S
C2282      F2286   1.383       .  S
C2282      F2287   1.384       .  S
C2282      F2288   1.383   1_655  S
C2289      C2290   1.396       .  A
C2289      C2294   1.392       .  A
C2289      H2296   1.084       .  S
C2290      C2291   1.414       .  A
C2291      C2292   1.402       .  A
C2291      C2298   1.518       .  S
C2292      C2293   1.401       .  A
C2292      H2297   1.085       .  S
C2293      C2294   1.417       .  A
C2294      C2295   1.524       .  S
C2295      F2299   1.385       .  S
C2295      F2300   1.382       .  S
C2295      F2301   1.384       .  S
C2298      F2302   1.382       .  S
C2298      F2303   1.383       .  S
C2298      F2304   1.383       .  S
C2305      C2306   1.407       .  A
C2305      C2310   1.417       .  A
C2305      H2312   1.084       .  S
C2306      C2307   1.428       .  A
C2307      C2308   1.411       .  A
C2307      C2314   1.516   1_655  S
C2308      C2309   1.405       .  A
C2308      H2313   1.086       .  S
C2309      C2310   1.424       .  A
C2310      C2311   1.514       .  S
C2311      F2315   1.383       .  S
C2311      F2316   1.378       .  S
C2311      F2317   1.384       .  S
C2314      F2318   1.384   1_455  S
C2314      F2319   1.373       .  S
C2314      F2320   1.381       .  S
C2321      C2322   1.405       .  A
C2321      C2326   1.400       .  A
C2321      H2328   1.084       .  S
C2322      C2323   1.418       .  A
C2323      C2324   1.390       .  A
C2323      C2330   1.526       .  S
C2324      C2325   1.402       .  A
C2324      H2329   1.084       .  S
C2325      C2326   1.410       .  A
C2326      C2327   1.511       .  S
C2327      F2331   1.385       .  S
C2327      F2332   1.380       .  S
C2327      F2333   1.383       .  S
C2330      F2334   1.382       .  S
C2330      F2335   1.381       .  S
C2330      F2336   1.385       .  S
C2337      C2338   1.411       .  A
C2337      C2342   1.418       .  A
C2337      H2344   1.081       .  S
C2338      C2339   1.414       .  A
C2339      C2340   1.419       .  A
C2339      C2346   1.514       .  S
C2340      C2341   1.417       .  A
C2340      H2345   1.080       .  S
C2341      C2342   1.428       .  A
C2342      C2343   1.524       .  S
C2343      F2347   1.383       .  S
C2343      F2348   1.376       .  S
C2343      F2349   1.381       .  S
C2346      F2350   1.383       .  S
C2346      F2351   1.383       .  S
C2346      F2352   1.385       .  S
C2353      C2354   1.412       .  A
C2353      C2358   1.391       .  A
C2353      H2360   1.084       .  S
C2354      C2355   1.412       .  A
C2355      C2356   1.397       .  A
C2355      C2362   1.518       .  S
C2356      C2357   1.410       .  A
C2356      H2361   1.084       .  S
C2357      C2358   1.403       .  A
C2358      C2359   1.514       .  S
C2359      F2363   1.384       .  S
C2359      F2364   1.384       .  S
C2359      F2365   1.377       .  S
C2362      F2366   1.383       .  S
C2362      F2367   1.382       .  S
C2362      F2368   1.384       .  S
C2369      C2370   1.414       .  A
C2369      C2374   1.418       .  A
C2369      H2376   1.083       .  S
C2370      C2371   1.427       .  A
C2371      C2372   1.414       .  A
C2371      C2378   1.517       .  S
C2372      C2373   1.407       .  A
C2372      H2377   1.080       .  S
C2373      C2374   1.420       .  A
C2374      C2375   1.520       .  S
C2375      F2379   1.384       .  S
C2375      F2380   1.378       .  S
C2375      F2381   1.382       .  S
C2378      F2382   1.373       .  S
C2378      F2383   1.385       .  S
C2378      F2384   1.382       .  S
C2385      C2386   1.395       .  A
C2385      C2390   1.381       .  A
C2385      H2392   1.087       .  S
C2386      C2387   1.416       .  A
C2387      C2388   1.403       .  A
C2387      C2394   1.515       .  S
C2388      C2389   1.400       .  A
C2388      H2393   1.084       .  S
C2389      C2390   1.413       .  A
C2390      C2391   1.515       .  S
C2391      F2395   1.384       .  S
C2391      F2396   1.375       .  S
C2391      F2397   1.381       .  S
C2394      F2398   1.383       .  S
C2394      F2399   1.382       .  S
C2394      F2400   1.383       .  S
C2401      C2402   1.426       .  A
C2401      C2406   1.429       .  A
C2401      H2408   1.079       .  S
C2402      C2403   1.442       .  A
C2403      C2404   1.419       .  A
C2403      C2410   1.524       .  S
C2404      C2405   1.406       .  A
C2404      H2409   1.080       .  S
C2405      C2406   1.414       .  A
C2406      C2407   1.515       .  S
C2407      F2411   1.384       .  S
C2407      F2412   1.383       .  S
C2407      F2413   1.382       .  S
C2410      F2414   1.373       .  S
C2410      F2415   1.378       .  S
C2410      F2416   1.385       .  S
C2417      C2418   1.414       .  A
C2417      C2422   1.431       .  A
C2417      H2424   1.082       .  S
C2418      C2419   1.425       .  A
C2419      C2420   1.404       .  A
C2419      C2426   1.521       .  S
C2420      C2421   1.413       .  A
C2420      H2425   1.085       .  S
C2421      C2422   1.427       .  A
C2422      C2423   1.510       .  S
C2423      F2427   1.384       .  S
C2423      F2428   1.377       .  S
C2423      F2429   1.382       .  S
C2426      F2430   1.384       .  S
C2426      F2431   1.379       .  S
C2426      F2432   1.380       .  S
C2433      C2434   1.421       .  A
C2433      C2438   1.426       .  A
C2433      H2440   1.081       .  S
C2434      C2435   1.435       .  A
C2435      C2436   1.420       .  A
C2435      C2442   1.523       .  S
C2436      C2437   1.406       .  A
C2436      H2441   1.081       .  S
C2437      C2438   1.416       .  A
C2438      C2439   1.514       .  S
C2439      F2443   1.384       .  S
C2439      F2444   1.383       .  S
C2439      F2445   1.383       .  S
C2442      F2446   1.385       .  S
C2442      F2447   1.376       .  S
C2442      F2448   1.379       .  S
C2449      C2450   1.410       .  A
C2449      C2454   1.410       .  A
C2449      H2456   1.083       .  S
C2450      C2451   1.426       .  A
C2451      C2452   1.424       .  A
C2451      C2458   1.517       .  S
C2452      C2453   1.410       .  A
C2452      H2457   1.083       .  S
C2453      C2454   1.420       .  A
C2454      C2455   1.515       .  S
C2455      F2459   1.379       .  S
C2455      F2460   1.384       .  S
C2455      F2461   1.383       .  S
C2458      F2462   1.383       .  S
C2458      F2463   1.382       .  S
C2458      F2464   1.384       .  S
C2465      C2466   1.413       .  A
C2465      C2470   1.425       .  A
C2465      H2472   1.081       .  S
C2466      C2467   1.423       .  A
C2467      C2468   1.409       .  A
C2467      C2474   1.519       .  S
C2468      C2469   1.412       .  A
C2468      H2473   1.085       .  S
C2469      C2470   1.424       .  A
C2470      C2471   1.516       .  S
C2471      F2475   1.385       .  S
C2471      F2476   1.381       .  S
C2471      F2477   1.382       .  S
C2474      F2478   1.383       .  S
C2474      F2479   1.378       .  S
C2474      F2480   1.384       .  S
C2481      C2482   1.405       .  A
C2481      C2486   1.411       .  A
C2481      H2488   1.082       .  S
C2482      C2483   1.427       .  A
C2483      C2484   1.418       .  A
C2483      C2490   1.514       .  S
C2484      C2485   1.405       .  A
C2484      H2489   1.085       .  S
C2485      C2486   1.424       .  A
C2486      C2487   1.516       .  S
C2487      F2491   1.383       .  S
C2487      F2492   1.381       .  S
C2487      F2493   1.383       .  S
C2490      F2494   1.382       .  S
C2490      F2495   1.379       .  S
C2490      F2496   1.383       .  S
C2497      C2498   1.416       .  A
C2497      C2502   1.414       .  A
C2497      H2504   1.080       .  S
C2498      C2499   1.425       .  A
C2499      C2500   1.418       .  A
C2499      C2506   1.519       .  S
C2500      C2501   1.415       .  A
C2500      H2505   1.085       .  S
C2501      C2502   1.414       .  A
C2502      C2503   1.518       .  S
C2503      F2507   1.383       .  S
C2503      F2508   1.383       .  S
C2503      F2509   1.383       .  S
C2506      F2510   1.383       .  S
C2506      F2511   1.378       .  S
C2506      F2512   1.383       .  S
C2513      C2514   1.424       .  A
C2513      C2518   1.436       .  A
C2513      H2520   1.079       .  S
C2514      C2515   1.426       .  A
C2515      C2516   1.407       .  A
C2515      C2522   1.521       .  S
C2516      C2517   1.419       .  A
C2516      H2521   1.077       .  S
C2517      C2518   1.434       .  A
C2518      C2519   1.514       .  S
C2519      F2523   1.384       .  S
C2519      F2524   1.382       .  S
C2519      F2525   1.383       .  S
C2522      F2526   1.375       .  S
C2522      F2527   1.379       .  S
C2522      F2528   1.386       .  S
C2529      C2530   1.408       .  A
C2529      C2534   1.413       .  A
C2529      H2536   1.084       .  S
C2530      C2531   1.435       .  A
C2531      C2532   1.421       .  A
C2531      C2538   1.515       .  S
C2532      C2533   1.404       .  A
C2532      H2537   1.085       .  S
C2533      C2534   1.423       .  A
C2534      C2535   1.514       .  S
C2535      F2539   1.383       .  S
C2535      F2540   1.384       .  S
C2535      F2541   1.383       .  S
C2538      F2542   1.380       .  S
C2538      F2543   1.376       .  S
C2538      F2544   1.383       .  S
C2545      C2546   1.405       .  A
C2545      C2550   1.411       .  A
C2545      H2552   1.083       .  S
C2546      C2547   1.415       .  A
C2547      C2548   1.420       .  A
C2547      C2554   1.515       .  S
C2548      C2549   1.415       .  A
C2548      H2553   1.078       .  S
C2549      C2550   1.424       .  A
C2550      C2551   1.515       .  S
C2551      F2555   1.385       .  S
C2551      F2556   1.380       .  S
C2551      F2557   1.377       .  S
C2554      F2558   1.383       .  S
C2554      F2559   1.382       .  S
C2554      F2560   1.384       .  S
C2561      C2562   1.415       .  A
C2561      C2566   1.421       .  A
C2561      H2568   1.079       .  S
C2562      C2563   1.419       .  A
C2563      C2564   1.420       .  A
C2563      C2570   1.520       .  S
C2564      C2565   1.418       .  A
C2564      H2569   1.083       .  S
C2565      C2566   1.421       .  A
C2566      C2567   1.517       .  S
C2567      F2571   1.385       .  S
C2567      F2572   1.383       .  S
C2567      F2573   1.381       .  S
C2570      F2574   1.382       .  S
C2570      F2575   1.381       .  S
C2570      F2576   1.384       .  S
C2577      C2578   1.423       .  A
C2577      C2582   1.424       .  A
C2577      H2584   1.077       .  S
C2578      C2579   1.433       .  A
C2579      C2580   1.415       .  A
C2579      C2586   1.523       .  S
C2580      C2581   1.410       .  A
C2580      H2585   1.079       .  S
C2581      C2582   1.410       .  A
C2582      C2583   1.513       .  S
C2583      F2587   1.384       .  S
C2583      F2588   1.382       .  S
C2583      F2589   1.383       .  S
C2586      F2590   1.380       .  S
C2586      F2591   1.380       .  S
C2586      F2592   1.384       .  S
C2593      C2594   1.416       .  A
C2593      C2598   1.406       .  A
C2593      H2600   1.072       .  S
C2594      C2595   1.435       .  A
C2595      C2596   1.429       .  A
C2595      C2602   1.514       .  S
C2596      C2597   1.405       .  A
C2596      H2601   1.083       .  S
C2597      C2598   1.414       .  A
C2598      C2599   1.523       .  S
C2599      F2603   1.382       .  S
C2599      F2604   1.377       .  S
C2599      F2605   1.383       .  S
C2602      F2606   1.381       .  S
C2602      F2607   1.382       .  S
C2602      F2608   1.385       .  S
C2609      C2610   1.417       .  A
C2609      C2614   1.428       .  A
C2609      H2616   1.081       .  S
C2610      C2611   1.416       .  A
C2611      C2612   1.394       .  A
C2611      C2618   1.523       .  S
C2612      C2613   1.417       .  A
C2612      H2617   1.081       .  S
C2613      C2614   1.429       .  A
C2614      C2615   1.513       .  S
C2615      F2619   1.385       .  S
C2615      F2620   1.382       .  S
C2615      F2621   1.382       .  S
C2618      F2622   1.369       .  S
C2618      F2623   1.384       .  S
C2618      F2624   1.384       .  S
C2625      C2626   1.411       .  A
C2625      C2630   1.412       .  A
C2625      H2632   1.071       .  S
C2626      C2627   1.428       .  A
C2627      C2628   1.425       .  A
C2627      C2634   1.514       .  S
C2628      C2629   1.409       .  A
C2628      H2633   1.083       .  S
C2629      C2630   1.416       .  A
C2630      C2631   1.519       .  S
C2631      F2635   1.383       .  S
C2631      F2636   1.382       .  S
C2631      F2637   1.383       .  S
C2634      F2638   1.381       .  S
C2634      F2639   1.383       .  S
C2634      F2640   1.385       .  S
C2641      C2642   1.403       .  A
C2641      C2646   1.404       .  A
C2641      H2648   1.083       .  S
C2642      C2643   1.413       .  A
C2643      C2644   1.415       .  A
C2643      C2650   1.514       .  S
C2644      C2645   1.413       .  A
C2644      H2649   1.082       .  S
C2645      C2646   1.425       .  A
C2646      C2647   1.518       .  S
C2647      F2651   1.375       .  S
C2647      F2652   1.379       .  S
C2647      F2653   1.385       .  S
C2650      F2654   1.383       .  S
C2650      F2655   1.383       .  S
C2650      F2656   1.384       .  S
C2657      C2658   1.400       .  A
C2657      C2662   1.398       .  A
C2657      H2664   1.077       .  S
C2658      C2659   1.443       .  A
C2659      C2660   1.428       .  A
C2659      C2666   1.508       .  S
C2660      C2661   1.401       .  A
C2660      H2665   1.083       .  S
C2661      C2662   1.420       .  A
C2662      C2663   1.499       .  S
C2663      F2667   1.378       .  S
C2663      F2668   1.376       .  S
C2663      F2669   1.382       .  S
C2666      F2670   1.382       .  S
C2666      F2671   1.381       .  S
C2666      F2672   1.384       .  S
C2673      C2674   1.405       .  A
C2673      C2678   1.424       .  A
C2673      H2680   1.076       .  S
C2674      C2675   1.434       .  A
C2675      C2676   1.413       .  A
C2675      C2682   1.509       .  S
C2676      C2677   1.399       .  A
C2676      H2681   1.083       .  S
C2677      C2678   1.430       .  A
C2678      C2679   1.514       .  S
C2679      F2683   1.384       .  S
C2679      F2684   1.380       .  S
C2679      F2685   1.384       .  S
C2682      F2686   1.380       .  S
C2682      F2687   1.383       .  S
C2682      F2688   1.383       .  S
C2689      C2690   1.412       .  A
C2689      C2694   1.425       .  A
C2689      H2696   1.078       .  S
C2690      C2691   1.431       .  A
C2691      C2692   1.405       .  A
C2691      C2698   1.521       .  S
C2692      C2693   1.403       .  A
C2692      H2697   1.086       .  S
C2693      C2694   1.422       .  A
C2694      C2695   1.513       .  S
C2695      F2699   1.385       .  S
C2695      F2700   1.382       .  S
C2695      F2701   1.379       .  S
C2698      F2702   1.383       .  S
C2698      F2703   1.374       .  S
C2698      F2704   1.383       .  S
C2705      C2706   1.416       .  A
C2705      C2710   1.427       .  A
C2705      H2712   1.080       .  S
C2706      C2707   1.427       .  A
C2707      C2708   1.406       .  A
C2707      C2714   1.512       .  S
C2708      C2709   1.403       .  A
C2708      H2713   1.086       .  S
C2709      C2710   1.419       .  A
C2710      C2711   1.513       .  S
C2711      F2715   1.384       .  S
C2711      F2716   1.383       .  S
C2711      F2717   1.383       .  S
C2714      F2718   1.373       .  S
C2714      F2719   1.381       .  S
C2714      F2720   1.384       .  S
C2721      C2722   1.401       .  A
C2721      C2726   1.403       .  A
C2721      H2728   1.074       .  S
C2722      C2723   1.435       .  A
C2723      C2724   1.429       .  A
C2723      C2730   1.513       .  S
C2724      C2725   1.408       .  A
C2724      H2729   1.084       .  S
C2725      C2726   1.428       .  A
C2726      C2727   1.522       .  S
C2727      F2731   1.384       .  S
C2727      F2732   1.383       .  S
C2727      F2733   1.384       .  S
C2730      F2734   1.378       .  S
C2730      F2735   1.383       .  S
C2730      F2736   1.383       .  S
C2737      C2738   1.408       .  A
C2737      C2742   1.413       .  A
C2737      H2744   1.080       .  S
C2738      C2739   1.433       .  A
C2739      C2740   1.413       .  A
C2739      C2746   1.513       .  S
C2740      C2741   1.400       .  A
C2740      H2745   1.085       .  S
C2741      C2742   1.418       .  A
C2742      C2743   1.517       .  S
C2743      F2747   1.384       .  S
C2743      F2748   1.382       .  S
C2743      F2749   1.383       .  S
C2746      F2750   1.384       .  S
C2746      F2751   1.368       .  S
C2746      F2752   1.383       .  S
C2753      C2754   1.417       .  A
C2753      C2758   1.420       .  A
C2753      H2760   1.080       .  S
C2754      C2755   1.420       .  A
C2755      C2756   1.410       .  A
C2755      C2762   1.527       .  S
C2756      C2757   1.411       .  A
C2756      H2761   1.079       .  S
C2757      C2758   1.413       .  A
C2758      C2759   1.513       .  S
C2759      F2763   1.384       .  S
C2759      F2764   1.383       .  S
C2759      F2765   1.383       .  S
C2762      F2766   1.374       .  S
C2762      F2767   1.382       .  S
C2762      F2768   1.385       .  S
C2769      C2770   1.404       .  A
C2769      C2774   1.419       .  A
C2769      H2776   1.083       .  S
C2770      C2771   1.411       .  A
C2771      C2772   1.404       .  A
C2771      C2778   1.522       .  S
C2772      C2773   1.411       .  A
C2772      H2777   1.077       .  S
C2773      C2774   1.428       .  A
C2774      C2775   1.518       .  S
C2775      F2779   1.385       .  S
C2775      F2780   1.380       .  S
C2775      F2781   1.382       .  S
C2778      F2782   1.383       .  S
C2778      F2783   1.380       .  S
C2778      F2784   1.379       .  S
C2785      C2786   1.412       .  A
C2785      C2790   1.421       .  A
C2785      H2792   1.082       .  S
C2786      C2787   1.437       .  A
C2787      C2788   1.412       .  A
C2787      C2794   1.513       .  S
C2788      C2789   1.399       .  A
C2788      H2793   1.086       .  S
C2789      C2790   1.418       .  A
C2790      C2791   1.514       .  S
C2791      F2795   1.384       .  S
C2791      F2796   1.383       .  S
C2791      F2797   1.383       .  S
C2794      F2798   1.383       .  S
C2794      F2799   1.362       .  S
C2794      F2800   1.385       .  S
C2801      C2802   1.412       .  A
C2801      C2806   1.409       .  A
C2801      H2808   1.083       .  S
C2802      C2803   1.443       .  A
C2803      C2804   1.423       .  A
C2803      C2810   1.512       .  S
C2804      C2805   1.400       .  A
C2804      H2809   1.084       .  S
C2805      C2806   1.424       .  A
C2806      C2807   1.514       .  S
C2807      F2811   1.385       .  S
C2807      F2812   1.383       .  S
C2807      F2813   1.380       .  S
C2810      F2814   1.381       .  S
C2810      F2815   1.369       .  S
C2810      F2816   1.383       .  S
C2817      C2818   1.417       .  A
C2817      C2822   1.426       .  A
C2817      H2824   1.083       .  S
C2818      C2819   1.436       .  A
C2819      C2820   1.414       .  A
C2819      C2826   1.525       .  S
C2820      C2821   1.406       .  A
C2820      H2825   1.083       .  S
C2821      C2822   1.420       .  A
C2822      C2823   1.515       .  S
C2823      F2827   1.385       .  S
C2823      F2828   1.382       .  S
C2823      F2829   1.383       .  S
C2826      F2830   1.372       .  S
C2826      F2831   1.380       .  S
C2826      F2832   1.386       .  S
C2833      C2834   1.411       .  A
C2833      C2838   1.421       .  A
C2833      H2840   1.079       .  S
C2834      C2835   1.437       .  A
C2835      C2836   1.419       .  A
C2835      C2842   1.514       .  S
C2836      C2837   1.400       .  A
C2836      H2841   1.085       .  S
C2837      C2838   1.420       .  A
C2838      C2839   1.518       .  S
C2839      F2843   1.385       .  S
C2839      F2844   1.383       .  S
C2839      F2845   1.381       .  S
C2842      F2846   1.367       .  S
C2842      F2847   1.384       .  S
C2842      F2848   1.384       .  S
C2849      C2850   1.413       .  A
C2849      C2854   1.427       .  A
C2849      H2856   1.081       .  S
C2850      C2851   1.425       .  A
C2851      C2852   1.411       .  A
C2851      C2858   1.517       .  S
C2852      C2853   1.411       .  A
C2852      H2857   1.085       .  S
C2853      C2854   1.425       .  A
C2854      C2855   1.517       .  S
C2855      F2859   1.384       .  S
C2855      F2860   1.382       .  S
C2855      F2861   1.378       .  S
C2858      F2862   1.382       .  S
C2858      F2863   1.375       .  S
C2858      F2864   1.384       .  S
C2865      C2866   1.405       .  A
C2865      C2870   1.412       .  A
C2865      H2872   1.082       .  S
C2866      C2867   1.428       .  A
C2867      C2868   1.421       .  A
C2867      C2874   1.513       .  S
C2868      C2869   1.406       .  A
C2868      H2873   1.084       .  S
C2869      C2870   1.427       .  A
C2870      C2871   1.517       .  S
C2871      F2875   1.384       .  S
C2871      F2876   1.383       .  S
C2871      F2877   1.383       .  S
C2874      F2878   1.382       .  S
C2874      F2879   1.380       .  S
C2874      F2880   1.383       .  S
C2881      C2882   1.411       .  A
C2881      C2886   1.425       .  A
C2881      H2888   1.083       .  S
C2882      C2883   1.411       .  A
C2883      C2884   1.405       .  A
C2883      C2890   1.521       .  S
C2884      C2885   1.413       .  A
C2884      H2889   1.077       .  S
C2885      C2886   1.427       .  A
C2886      C2887   1.519       .  S
C2887      F2891   1.381       .  S
C2887      F2892   1.379       .  S
C2887      F2893   1.384       .  S
C2890      F2894   1.382       .  S
C2890      F2895   1.383       .  S
C2890      F2896   1.380       .  S
C2897      C2898   1.423       .  A
C2897      C2902   1.429       .  A
C2897      H2904   1.081       .  S
C2898      C2899   1.427       .  A
C2899      C2900   1.407       .  A
C2899      C2906   1.531       .  S
C2900      C2901   1.415       .  A
C2900      H2905   1.067       .  S
C2901      C2902   1.418       .  A
C2902      C2903   1.513       .  S
C2903      F2907   1.384       .  S
C2903      F2908   1.381       .  S
C2903      F2909   1.383       .  S
C2906      F2910   1.377       .  S
C2906      F2911   1.376       .  S
C2906      F2912   1.385       .  S
C2913      C2914   1.428       .  A
C2913      C2918   1.442       .  A
C2913      H2920   1.082       .  S
C2914      C2915   1.416       .  A
C2915      C2916   1.392       .  A
C2915      C2922   1.521       .  S
C2916      C2917   1.418       .  A
C2916      H2921   1.077       .  S
C2917      C2918   1.428       .  A
C2918      C2919   1.509       .  S
C2919      F2923   1.384       .  S
C2919      F2924   1.382       .  S
C2919      F2925   1.383       .  S
C2922      F2926   1.387       .  S
C2922      F2927   1.379       .  S
C2922      F2928   1.373       .  S
C2929      C2930   1.408       .  A
C2929      C2934   1.413       .  A
C2929      H2936   1.084       .  S
C2930      C2931   1.437       .  A
C2931      C2932   1.410       .  A
C2931      C2938   1.517       .  S
C2932      C2933   1.401       .  A
C2932      H2937   1.086       .  S
C2933      C2934   1.422       .  A
C2934      C2935   1.517       .  S
C2935      F2939   1.384       .  S
C2935      F2940   1.384       .  S
C2935      F2941   1.379       .  S
C2938      F2942   1.385       .  S
C2938      F2943   1.370       .  S
C2938      F2944   1.382       .  S
C2945      C2946   1.417       .  A
C2945      C2950   1.408       .  A
C2945      H2952   1.081       .  S
C2946      C2947   1.424       .  A
C2947      C2948   1.425       .  A
C2947      C2954   1.515       .  S
C2948      C2949   1.418       .  A
C2948      H2953   1.082       .  S
C2949      C2950   1.426       .  A
C2950      C2951   1.525       .  S
C2951      F2955   1.386       .  S
C2951      F2956   1.374       .  S
C2951      F2957   1.382       .  S
C2954      F2958   1.383       .  S
C2954      F2959   1.381       .  S
C2954      F2960   1.385       .  S
C2961      C2962   1.418       .  A
C2961      C2966   1.412       .  A
C2961      H2968   1.081       .  S
C2962      C2963   1.431       .  A
C2963      C2964   1.415       .  A
C2963      C2970   1.521       .  S
C2964      C2965   1.404       .  A
C2964      H2969   1.083       .  S
C2965      C2966   1.410       .  A
C2966      C2967   1.517       .  S
C2967      F2971   1.384       .  S
C2967      F2972   1.383       .  S
C2967      F2973   1.383       .  S
C2970      F2974   1.380       .  S
C2970      F2975   1.382       .  S
C2970      F2976   1.384       .  S
C2977      C2978   1.411       .  A
C2977      C2982   1.422       .  A
C2977      H2984   1.082       .  S
C2978      C2979   1.437       .  A
C2979      C2980   1.413       .  A
C2979      C2986   1.521       .  S
C2980      C2981   1.403       .  A
C2980      H2985   1.086       .  S
C2981      C2982   1.420       .  A
C2982      C2983   1.514       .  S
C2983      F2987   1.384       .  S
C2983      F2988   1.383       .  S
C2983      F2989   1.382       .  S
C2986      F2990   1.381       .  S
C2986      F2991   1.375       .  S
C2986      F2992   1.384       .  S
C2993      C2994   1.431       .  A
C2993      C2998   1.431       .  A
C2993      H3000   1.080       .  S
C2994      C2995   1.438       .  A
C2995      C2996   1.418       .  A
C2995      C3002   1.522       .  S
C2996      C2997   1.413       .  A
C2996      H3001   1.082       .  S
C2997      C2998   1.411       .  A
C2998      C2999   1.512       .  S
C2999      F3003   1.384       .  S
C2999      F3004   1.382       .  S
C2999      F3005   1.382       .  S
C3002      F3006   1.377       .  S
C3002      F3007   1.374       .  S
C3002      F3008   1.386       .  S
C3009      C3010   1.414       .  A
C3009      C3014   1.411       .  A
C3009      H3016   1.080       .  S
C3010      C3011   1.434       .  A
C3011      C3012   1.420       .  A
C3011      C3018   1.516       .  S
C3012      C3013   1.402       .  A
C3012      H3017   1.082       .  S
C3013      C3014   1.418       .  A
C3014      C3015   1.518       .  S
C3015      F3019   1.382       .  S
C3015      F3020   1.382       .  S
C3015      F3021   1.384       .  S
C3018      F3022   1.381       .  S
C3018      F3023   1.374       .  S
C3018      F3024   1.385       .  S
C3025      C3026   1.407       .  A
C3025      C3030   1.416       .  A
C3025      H3032   1.082       .  S
C3026      C3027   1.433       .  A
C3027      C3028   1.415       .  A
C3027      C3034   1.519       .  S
C3028      C3029   1.402       .  A
C3028      H3033   1.085       .  S
C3029      C3030   1.418       .  A
C3030      C3031   1.521       .  S
C3031      F3035   1.384       .  S
C3031      F3036   1.383       .  S
C3031      F3037   1.380       .  S
C3034      F3038   1.380       .  S
C3034      F3039   1.383       .  S
C3034      F3040   1.384       .  S
C3041      C3042   1.398       .  A
C3041      C3046   1.415       .  A
C3041      H3048   1.082       .  S
C3042      C3043   1.426       .  A
C3043      C3044   1.414       .  A
C3043      C3050   1.519       .  S
C3044      C3045   1.406       .  A
C3044      H3049   1.084       .  S
C3045      C3046   1.435       .  A
C3046      C3047   1.518       .  S
C3047      F3051   1.385       .  S
C3047      F3052   1.376       .  S
C3047      F3053   1.376       .  S
C3050      F3054   1.382       .  S
C3050      F3055   1.383       .  S
C3050      F3056   1.384       .  S
C3057      C3058   1.398       .  A
C3057      C3062   1.406       .  A
C3057      H3064   1.078       .  S
C3058      C3059   1.425       .  A
C3059      C3060   1.411       .  A
C3059      C3066   1.513       .  S
C3060      C3061   1.401       .  A
C3060      H3065   1.084       .  S
C3061      C3062   1.430       .  A
C3062      C3063   1.524       .  S
C3063      F3067   1.384       .  S
C3063      F3068   1.382       .  S
C3063      F3069   1.382       .  S
C3066      F3070   1.383       .  S
C3066      F3071   1.383       .  S
C3066      F3072   1.383       .  S
C3073      C3074   1.417       .  A
C3073      C3078   1.439       .  A
C3073      H3080   1.082       .  S
C3074      C3075   1.426       .  A
C3075      C3076   1.397       .  A
C3075      C3082   1.514       .  S
C3076      C3077   1.399       .  A
C3076      H3081   1.086       .  S
C3077      C3078   1.432       .  A
C3078      C3079   1.512       .  S
C3079      F3083   1.384       .  S
C3079      F3084   1.382       .  S
C3079      F3085   1.383       .  S
C3082      F3086   1.381       .  S
C3082      F3087   1.372       .  S
C3082      F3088   1.383       .  S
C3089      C3090   1.421       .  A
C3089      C3094   1.423       .  A
C3089      H3096   1.081       .  S
C3090      C3091   1.416       .  A
C3091      C3092   1.409       .  A
C3091      C3098   1.519       .  S
C3092      C3093   1.416       .  A
C3092      H3097   1.083       .  S
C3093      C3094   1.414       .  A
C3094      C3095   1.514       .  S
C3095      F3099   1.384       .  S
C3095      F3100   1.383       .  S
C3095      F3101   1.382       .  S
C3098      F3102   1.380       .  S
C3098      F3103   1.369       .  S
C3098      F3104   1.385       .  S
C3105      C3106   1.409       .  A
C3105      C3110   1.404       .  A
C3105      H3112   1.079       .  S
C3106      C3107   1.435       .  A
C3107      C3108   1.426       .  A
C3107      C3114   1.516       .  S
C3108      C3109   1.407       .  A
C3108      H3113   1.084       .  S
C3109      C3110   1.417       .  A
C3110      C3111   1.520       .  S
C3111      F3115   1.382       .  S
C3111      F3116   1.383       .  S
C3111      F3117   1.379       .  S
C3114      F3118   1.382       .  S
C3114      F3119   1.378       .  S
C3114      F3120   1.383       .  S
C3121      C3122   1.412       .  A
C3121      C3126   1.407       .  A
C3121      H3128   1.081       .  S
C3122      C3123   1.440       .  A
C3123      C3124   1.427       .  A
C3123      C3130   1.512       .  S
C3124      C3125   1.408       .  A
C3124      H3129   1.082       .  S
C3125      C3126   1.432       .  A
C3126      C3127   1.525       .  S
C3127      F3131   1.383       .  S
C3127      F3132   1.384       .  S
C3127      F3133   1.383       .  S
C3130      F3134   1.381       .  S
C3130      F3135   1.376       .  S
C3130      F3136   1.384       .  S
C3137      C3138   1.414       .  A
C3137      C3142   1.423       .  A
C3137      H3144   1.082       .  S
C3138      C3139   1.435       .  A
C3139      C3140   1.419       .  A
C3139      C3146   1.522       .  S
C3140      C3141   1.405       .  A
C3140      H3145   1.083       .  S
C3141      C3142   1.420       .  A
C3142      C3143   1.516       .  S
C3143      F3147   1.384       .  S
C3143      F3148   1.383       .  S
C3143      F3149   1.383       .  S
C3146      F3150   1.381       .  S
C3146      F3151   1.375       .  S
C3146      F3152   1.384       .  S
C3153      C3154   1.404       .  A
C3153      C3158   1.405       .  A
C3153      H3160   1.085       .  S
C3154      C3155   1.437       .  A
C3155      C3156   1.425       .  A
C3155      C3162   1.514       .  S
C3156      C3157   1.404       .  A
C3156      H3161   1.084       .  S
C3157      C3158   1.428       .  A
C3158      C3159   1.522       .  S
C3159      F3163   1.384       .  S
C3159      F3164   1.383       .  S
C3159      F3165   1.383       .  S
C3162      F3166   1.384       .  S
C3162      F3167   1.376       .  S
C3162      F3168   1.383       .  S
