geometry optimzed in LAMMPS
_audit_creation_date              2020-11-30 
_audit_creation_method            'lammps2cif' 
_symmetry_space_group_name_H-M    'P1' 
_symmetry_Int_Tables_number       1 
_symmetry_cell_setting            triclinic 
loop_ 
_symmetry_equiv_pos_as_xyz 
  x,y,z 
_cell_length_a                    35.36955725318151 
_cell_length_b                    37.34110198267771 
_cell_length_c                    30.733274931464393 
_cell_angle_alpha                 87.79189438097013 
_cell_angle_beta                  90.85462164022292 
_cell_angle_gamma                 119.23765156694301 
loop_ 
_atom_site_label 
_atom_site_type_symbol 
_atom_site_fract_x 
_atom_site_fract_y 
_atom_site_fract_z 
_atom_site_charge 
C1          C  0.94502190  0.64576494  0.38605572     0.42460
N2          N  0.87645185  0.61722127  0.37959494     0.01350
C3          C  0.75481296  0.55371211  0.19094537    -0.06520
H4          H  0.85388919  0.69603104  0.18456166     0.06840
C5          C  0.73743490  0.68186216  0.32835072    -0.06880
Co6        Co  0.84826240  0.58737046  0.28863558     0.74180
N7          N  0.84249331  0.65225411  0.23795022    -0.26050
Co8        Co  0.77412478  0.61399861  0.25814946     0.74070
C9          C  0.74325846  0.70206413  0.28566244     0.42560
N10         N  0.78977886  0.64794475  0.40585751     0.00970
N11         N  0.76977644  0.66111205  0.28526544     0.01070
N12         N  0.81289698  0.54459803  0.19683134    -0.46900
H13         H  0.95409551  0.63815043  0.31345570     0.06830
N14         N  0.86925271  0.64078878  0.25563343     0.01360
N15         N  0.71064501  0.57164803  0.28194807     0.01100
C16         C  0.65411059  0.51212511  0.29230067     0.42700
N17         N  0.80813404  0.63062558  0.42960138    -0.25510
C18         C  0.81870595  0.49877786  0.31089236    -0.06430
N19         N  0.90806840  0.63394631  0.40781400    -0.46620
N20         N  0.68438544  0.53692375  0.26268680    -0.46840
C21         C  0.80130689  0.47145345  0.34838534     0.42480
N22         N  0.80645523  0.55884614  0.23387504     0.01350
N23         N  0.75155975  0.54106967  0.41560846    -0.25530
N24         N  0.89027197  0.61720354  0.33988337    -0.26020
N25         N  0.73011963  0.56105638  0.41936706     0.00990
H26         H  0.77143186  0.50816541  0.45896208     0.06880
H27         H  0.65068765  0.52325611  0.36456180     0.06910
N28         N  0.77453580  0.56682886  0.22877305    -0.26070
N29         N  0.75384395  0.65655898  0.32478374    -0.25690
N30         N  0.81454070  0.53103139  0.36640258     0.01350
C31         C  0.91208100  0.68710993  0.20928315     0.42750
C32         C  0.80668444  0.64192314  0.47127934    -0.06940
N33         N  0.69990477  0.56971143  0.32356263    -0.25680
H34         H  0.71780516  0.68132104  0.35529531     0.06900
N35         N  0.90891193  0.65999095  0.24034474    -0.46910
H36         H  0.81284446  0.62867369  0.50043787     0.06880
C37         C  0.73602935  0.53844718  0.48547067     0.42580
C38         C  0.93364881  0.63548435  0.34058704    -0.06430
Co39       Co  0.81354467  0.58013490  0.39821313     0.73820
N40         N  0.77932606  0.67182286  0.42678844    -0.46620
C41         C  0.78025869  0.53954959  0.16843778     0.42850
N42         N  0.80009730  0.49295395  0.38225720    -0.46610
Co43       Co  0.74278360  0.60864819  0.36809314     0.73890
C44         C  0.66379361  0.53464103  0.33224776    -0.06940
C45         C  0.86684575  0.68205737  0.20726713    -0.06500
N46         N  0.82539130  0.53448889  0.32476722    -0.26030
N47         N  0.76353883  0.68760346  0.26091408    -0.46790
H48         H  0.73249124  0.56277154  0.17660082     0.06860
C49         C  0.75017069  0.52069400  0.45284309    -0.06920
Cl50       Cl  0.79520606  0.59806991  0.32787638    -0.49920
C51         C  0.78600862  0.66881223  0.46907097     0.42610
H52         H  0.82492435  0.49284183  0.27833266     0.06820
N53         N  0.72273898  0.56251869  0.46195135    -0.46630
C54         C  0.77750364  0.73914842  0.79340430     0.42460
N55         N  0.77352517  0.68096077  0.78757743     0.01350
C56         C  0.80267032  0.56678489  0.95492147    -0.06520
H57         H  0.90473096  0.72532899  0.94699592     0.06840
C58         C  0.96207978  0.71313722  0.81604466    -0.06880
Co59       Co  0.76232967  0.63341003  0.87225585     0.74180
N60         N  0.84679096  0.67880846  0.91544094    -0.26050
Co61       Co  0.85673629  0.63169357  0.88892360     0.74070
C62         C  0.97431046  0.72873828  0.86102414     0.42560
N63         N  0.87684114  0.68130034  0.73976285     0.00970
N64         N  0.91203562  0.67488276  0.86158579     0.01070
N65         N  0.74246246  0.57264881  0.95496702    -0.46900
H66         H  0.76056372  0.72689243  0.86669947     0.06830
N67         N  0.80901326  0.67683644  0.90837643     0.01360
N68         N  0.86504388  0.58647785  0.85937265     0.01100
C69         C  0.86762833  0.53186730  0.84744446     0.42700
N70         N  0.84151402  0.68330496  0.72973731    -0.25510
C71         C  0.68074452  0.55498983  0.84462530    -0.06430
N72         N  0.78097446  0.71455287  0.76553470    -0.46620
N73         N  0.86103654  0.55253263  0.87874215    -0.46840
C74         C  0.66308788  0.53358015  0.80450668     0.42480
N75         N  0.76497410  0.58929934  0.91806240     0.01350
N76         N  0.78866456  0.59425887  0.73030349    -0.25530
N77         N  0.76476756  0.68072353  0.82913860    -0.26020
N78         N  0.82527445  0.59315567  0.73010842     0.00990
H79         H  0.73620322  0.57827311  0.68676661     0.06880
H80         H  0.87756351  0.54672153  0.77391739     0.06910
N81         N  0.80147135  0.58795493  0.91941238    -0.26070
N82         N  0.92233769  0.67869985  0.82001142    -0.25690
N83         N  0.72243568  0.59018274  0.79009575     0.01350
C84         C  0.84351772  0.73282061  0.94162817     0.42750
C85         C  0.85383404  0.71457850  0.69938238    -0.06940
N86         N  0.87162225  0.58784947  0.81688369    -0.25680
H87         H  0.97994221  0.72585356  0.78597584     0.06900
N88         N  0.80574278  0.70756846  0.92337993    -0.46910
H89         H  0.83241786  0.72357122  0.68287165     0.06880
C90         C  0.78780357  0.56109158  0.67212514     0.42580
C91         C  0.76501591  0.71653370  0.83581279    -0.06430
Co92       Co  0.78069981  0.63713405  0.75947813     0.73820
N93         N  0.91212077  0.70855073  0.71914457    -0.46620
C94         C  0.76396999  0.55668981  0.97940816     0.42850
N95         N  0.69106353  0.55674590  0.77205016    -0.46610
Co96       Co  0.87502486  0.63471912  0.77631286     0.73890
C97         C  0.87391196  0.55470171  0.80645841    -0.06940
C98         C  0.87145780  0.71384853  0.93709077    -0.06500
N99         N  0.71701156  0.58920149  0.83274528    -0.26030
N100        N  0.94117473  0.70308519  0.88604124    -0.46790
H101        H  0.83169266  0.56708984  0.96705206     0.06860
C102        C  0.76385573  0.57514853  0.69688321    -0.06920
Cl103      Cl  0.81846394  0.63365649  0.82416653    -0.49920
C104        C  0.90136841  0.73147520  0.69310396     0.42610
H105        H  0.66920177  0.54535937  0.87769610     0.06820
N106        N  0.82697571  0.57478147  0.69374770    -0.46630
C107        C  0.09893893  0.86240376  0.96426593     0.42460
N108        N  0.14196099  0.87943715  0.02000084     0.01350
C109        C  0.36173925  0.94757747  0.98475946    -0.06520
H110        H  0.25426351  0.81432113  0.91921227     0.06840
C111        C  0.19704931  0.74085111  0.05137604    -0.06880
Co112      Co  0.23520552  0.92594322  0.99174721     0.74180
N113        N  0.25160491  0.86244331  0.95291199    -0.26050
Co114      Co  0.28113418  0.86272135  0.00991170     0.74070
C115        C  0.21567640  0.73257805  0.01377029     0.42560
N116        N  0.14535060  0.79168168  0.09801374     0.00970
N117        N  0.24175633  0.79801265  0.01787597     0.01070
N118        N  0.33088492  0.98739033  0.97411753    -0.46900
H119        H  0.15606336  0.90007913  0.91772864     0.06830
N120        N  0.23443207  0.88633051  0.94410935     0.01360
N121        N  0.30859323  0.86223973  0.06908140     0.01100
C122        C  0.35408611  0.85798691  0.11349575     0.42700
N123        N  0.13041293  0.81688351  0.08714901    -0.25510
C124        C  0.25389336  0.00158506  0.05470583    -0.06430
N125        N  0.10097507  0.85687217  0.00799254    -0.46620
N126        N  0.34945189  0.87132188  0.07357442    -0.46840
C127        C  0.23467996  0.00300129  0.09702456     0.42480
N128        N  0.30323232  0.95156693  0.99335570     0.01350
N129        N  0.19670565  0.87697423  0.14183109    -0.25530
N130        N  0.16774513  0.89857781  0.98661313    -0.26020
N131        N  0.21607199  0.85455669  0.14655549     0.00990
H132        H  0.18359678  0.91201409  0.18787967     0.06880
H133        H  0.29947439  0.81997330  0.16348766     0.06910
N134        N  0.32032914  0.92712793  0.99919233    -0.26070
N135        N  0.21516386  0.78161129  0.05138337    -0.25690
N136        N  0.20583894  0.94104484  0.07656516     0.01350
C137        C  0.21917394  0.84724952  0.89029674     0.42750
C138        C  0.08769385  0.79834100  0.09260855    -0.06940
N139        N  0.28416618  0.84226967  0.10332912    -0.25680
H140        H  0.17744041  0.72006318  0.07747304     0.06900
N141        N  0.21454799  0.87827549  0.90591905    -0.46910
H142        H  0.06856210  0.81377655  0.09105036     0.06880
C143        C  0.22055176  0.87749767  0.20979510     0.42580
C144        C  0.14351727  0.89069691  0.95046075    -0.06430
Co145      Co  0.16843418  0.87880524  0.08123486     0.73820
N146        N  0.11336545  0.75596158  0.11410016    -0.46620
C147        C  0.36910309  0.98796279  0.96812457     0.42850
N148        N  0.20582360  0.96423103  0.10769969    -0.46610
Co149      Co  0.21491054  0.81693137  0.10024154     0.73890
C150        C  0.31028258  0.83788045  0.13331144    -0.06940
C151        C  0.24432627  0.83742221  0.92056117    -0.06500
N152        N  0.23332967  0.96134470  0.04443540    -0.26030
N153        N  0.24395274  0.76954728  0.99511980    -0.46790
H154        H  0.38213041  0.93383941  0.98055953     0.06860
C155        C  0.19806035  0.89323338  0.18063022    -0.06920
Cl156      Cl  0.22533789  0.87140727  0.04596613    -0.49920
C157        C  0.07569996  0.75798460  0.11073835     0.42610
H158        H  0.27912826  0.02650299  0.03560843     0.06820
N159        N  0.23087943  0.85449611  0.18584062    -0.46630
C160        C  0.10274892  0.72928721  0.47085031     0.42460
N161        N  0.14129640  0.78942364  0.49346540     0.01350
C162        C  0.35217802  0.86687110  0.56751503    -0.06520
H163        H  0.24582474  0.74059625  0.64831611     0.06840
C164        C  0.16791877  0.82703165  0.69356134    -0.06880
Co165      Co  0.23330064  0.80840483  0.50557497     0.74180
N166        N  0.23975009  0.77504913  0.59294694    -0.26050
Co167      Co  0.26225325  0.83691869  0.61125389     0.74070
C168        C  0.18120422  0.79953940  0.71609851     0.42560
N169        N  0.13065121  0.84921411  0.59370824     0.00970
N170        N  0.21214961  0.81844179  0.65404745     0.01070
N171        N  0.33078458  0.84370856  0.49998138    -0.46900
H172        H  0.15979114  0.71617040  0.47088308     0.06830
N173        N  0.22791630  0.76488184  0.55242756     0.01360
N174        N  0.28405115  0.89830259  0.63249367     0.01100
C175        C  0.30576080  0.95195617  0.67236821     0.42700
N176        N  0.11727697  0.83591489  0.55448213    -0.25510
C177        C  0.26033655  0.86369303  0.42137719    -0.06430
N178        N  0.10184846  0.76355482  0.48080562    -0.46620
N179        N  0.31067242  0.91842758  0.66508834    -0.46840
C180        C  0.24211109  0.88574704  0.39584950     0.42480
N181        N  0.29861743  0.84271377  0.52244932     0.01350
N182        N  0.19091838  0.91218735  0.51813676    -0.25530
N183        N  0.16800166  0.77419049  0.49147962    -0.26020
N184        N  0.20702719  0.92548776  0.55672278     0.00990
H185        H  0.20534690  0.94109819  0.45420303     0.06880
H186        H  0.25455504  0.96553118  0.64459203     0.06910
N187        N  0.30989620  0.85460076  0.56281250    -0.26070
N188        N  0.18946707  0.83785251  0.65565846    -0.25690
N189        N  0.20954689  0.86516759  0.45751366     0.01350
C190        C  0.22286813  0.70927002  0.58196837     0.42750
C191        C  0.07359744  0.81691247  0.55435169    -0.06940
N192        N  0.25997823  0.91521463  0.62220477    -0.25680
H193        H  0.14937364  0.84043649  0.70601717     0.06900
N194        N  0.21775129  0.72655380  0.54464298    -0.46910
H195        H  0.05326263  0.80367589  0.52634559     0.06880
C196        C  0.24192013  0.97802253  0.51243817     0.42580
C197        C  0.14629235  0.73592026  0.47732919    -0.06430
Co198      Co  0.16357611  0.85027216  0.50545390     0.73820
N199        N  0.09843327  0.84063158  0.62106489    -0.46620
C200        C  0.36579366  0.85786627  0.52615814     0.42850
N201        N  0.21073818  0.88484255  0.42059667    -0.46610
Co202      Co  0.19649330  0.88223524  0.60737764     0.73890
C203        C  0.27361068  0.95016779  0.64213003    -0.06940
C204        C  0.23743841  0.74166099  0.61451899    -0.06500
N205        N  0.23746889  0.85142178  0.45843225    -0.26030
N206        N  0.20731480  0.79487467  0.68867803    -0.46790
H207        H  0.36895915  0.87491585  0.59815055     0.06860
C208        C  0.20867480  0.94362287  0.48901104    -0.06920
Cl209      Cl  0.21401405  0.84435820  0.55748622    -0.49920
C210        C  0.06103203  0.82057527  0.59877943     0.42610
H211        H  0.28312235  0.85409082  0.41142227     0.06820
N212        N  0.23874544  0.96433212  0.55444218    -0.46630
C213        C  0.23445972  0.59040495  0.05044388     0.42460
N214        N  0.21369382  0.52762918  0.07049835     0.01350
C215        C  0.34601541  0.44110343  0.10625097    -0.06520
H216        H  0.37292805  0.52850197  0.96233423     0.06840
C217        C  0.21577041  0.41931617  0.91943223    -0.06880
Co218      Co  0.28773946  0.51505243  0.10082207     0.74180
N219        N  0.33120837  0.51567539  0.01803515    -0.26050
Co220      Co  0.29797992  0.45304106  0.02699647     0.74070
C221        C  0.25671801  0.44108026  0.89603634     0.42560
N222        N  0.15249784  0.42762441  0.99690226     0.00970
N223        N  0.26911006  0.44510779  0.96491684     0.01070
N224        N  0.33602262  0.47793646  0.15709720    -0.46900
H225        H  0.30481301  0.60970424  0.07197673     0.06830
N226        N  0.32789905  0.53919581  0.04681001     0.01360
N227        N  0.26517498  0.39072531  0.03772353     0.01100
C228        C  0.25837239  0.33297081  0.01953846     0.42700
N229        N  0.14837073  0.45308958  0.02238353    -0.25510
C230        C  0.25141248  0.48818347  0.19648789    -0.06430
N231        N  0.19982441  0.55220588  0.05364355    -0.46620
N232        N  0.28630887  0.37033393  0.03317312    -0.46840
C233        C  0.20780136  0.46817310  0.21561638     0.42480
N234        N  0.31947221  0.48116726  0.11884687     0.01350
N235        N  0.14640494  0.40366703  0.09656301    -0.25530
N236        N  0.25543667  0.54703215  0.07926161    -0.26020
N237        N  0.14712836  0.37581920  0.07189310     0.00990
H238        H  0.10904821  0.40142694  0.15144786     0.06880
H239        H  0.18687178  0.30942588  0.00187037     0.06910
N240        N  0.32449574  0.45933132  0.08899809    -0.26070
N241        N  0.22655470  0.42337633  0.96145049    -0.25690
N242        N  0.20321602  0.47351966  0.14628124     0.01350
C243        C  0.37608299  0.58100512  0.00185282     0.42750
C244        C  0.11668123  0.45977029  0.00606287    -0.06940
N245        N  0.22336997  0.36869367  0.02991019    -0.25680
H246        H  0.18334663  0.40150418  0.90682740     0.06900
N247        N  0.35441917  0.57852009  0.03846225    -0.46910
H248        H  0.10248787  0.47559599  0.02227444     0.06880
C249        C  0.09920783  0.34287083  0.12146677     0.42580
C250        C  0.27135448  0.58695828  0.06841169    -0.06430
Co251      Co  0.17767003  0.46515064  0.08370716     0.73820
N252        N  0.12558357  0.41666171  0.96366025    -0.46620
C253        C  0.35374375  0.45330320  0.15122617     0.42850
N254        N  0.17986015  0.45981766  0.18247210    -0.46610
Co255      Co  0.18665437  0.39776914  0.01527344     0.73890
C256        C  0.21600530  0.33155533  0.01783075    -0.06940
C257        C  0.36125019  0.53931032  0.98833446    -0.06500
N258        N  0.24513190  0.49029141  0.15339069    -0.26030
N259        N  0.28862211  0.45552044  0.92624857    -0.46790
H260        H  0.35356045  0.42025125  0.08983399     0.06860
C261        C  0.11855660  0.38583623  0.12871808    -0.06920
Cl262      Cl  0.23740429  0.45752563  0.05675163    -0.49920
C263        C  0.10221757  0.43606209  0.96630088     0.42610
H264        H  0.28243975  0.49967919  0.21242410     0.06820
N265        N  0.11692557  0.33806347  0.08452664    -0.46630
C266        C  0.09675711  0.37967607  0.66072998     0.42460
N267        N  0.13428289  0.40093491  0.60126594     0.01350
C268        C  0.28682707  0.33698443  0.58061339    -0.06520
H269        H  0.32774496  0.45459428  0.68368940     0.06840
C270        C  0.33203711  0.54966392  0.56120023    -0.06880
Co271      Co  0.18775862  0.35949393  0.60165218     0.74180
N272        N  0.27368617  0.41593021  0.64289978    -0.26050
Co273      Co  0.29460636  0.42521637  0.57885439     0.74070
C274        C  0.36241256  0.55414456  0.59603197     0.42560
N275        N  0.22452758  0.50527150  0.53414988     0.00970
N276        N  0.32201325  0.48968843  0.58219661     0.01070
N277        N  0.21502933  0.29727527  0.58880835    -0.46900
H278        H  0.13700901  0.35171712  0.68726661     0.06830
N279        N  0.23284071  0.38888797  0.65146258     0.01360
N280        N  0.30944865  0.43168136  0.51300169     0.01100
C281        C  0.31403147  0.41020017  0.45018269     0.42700
N282        N  0.18372378  0.48044178  0.54573963    -0.25510
C283        C  0.12016105  0.29306112  0.53615297    -0.06430
N284        N  0.09931823  0.39765612  0.62062186    -0.46620
N285        N  0.31943017  0.40655485  0.49325132    -0.46840
C286        C  0.09352752  0.29475062  0.49951850     0.42480
N287        N  0.22560129  0.33607329  0.58076110     0.01350
N288        N  0.17438403  0.42988358  0.47075482    -0.25530
N289        N  0.15153653  0.38286627  0.62523522    -0.26020
N290        N  0.21560125  0.45363445  0.46088592     0.00990
H291        H  0.11734378  0.39758537  0.43069288     0.06880
H292        H  0.28723547  0.44845867  0.41590042     0.06910
N293        N  0.26764105  0.36051705  0.57641393    -0.26070
N294        N  0.30890879  0.50939808  0.55496708    -0.25690
N295        N  0.12991108  0.35457726  0.52616690     0.01350
C296        C  0.26065912  0.41089654  0.71396171     0.42750
C297        C  0.16744266  0.50312758  0.56188996    -0.06940
N298        N  0.29613047  0.45141142  0.48559903    -0.25680
H299        H  0.32892636  0.57289087  0.54190095     0.06900
N300        N  0.22376569  0.38529267  0.69349783    -0.46910
H301        H  0.13497550  0.49058971  0.57443445     0.06880
C302        C  0.18472089  0.43655665  0.39894827     0.42580
C303        C  0.13274006  0.37191552  0.66395591    -0.06430
Co304      Co  0.15460565  0.41667703  0.53604970     0.73820
N305        N  0.23711107  0.54434776  0.54159285    -0.46620
C306        C  0.25156167  0.29452651  0.58886793     0.42850
N307        N  0.10131873  0.33377064  0.49594847    -0.46610
Co308      Co  0.26219552  0.48093741  0.50811630     0.73890
C309        C  0.29896680  0.44036109  0.44506538    -0.06940
C310        C  0.29400515  0.43182871  0.68038236    -0.06500
N311        N  0.14201556  0.33190135  0.55038922    -0.26030
N312        N  0.35440523  0.51539164  0.60711828    -0.46790
H313        H  0.32133674  0.34872395  0.58387745     0.06860
C314        C  0.15190233  0.41762076  0.43336164    -0.06920
Cl315      Cl  0.22486278  0.42077385  0.55612470    -0.49920
C316        C  0.20285132  0.54600083  0.55874094     0.42610
H317        H  0.12245874  0.26702857  0.54967082     0.06820
N318        N  0.22303678  0.45875325  0.41851521    -0.46630
C319        C  0.54577887  0.34406443  0.32630028     0.42460
N320        N  0.48189261  0.30369260  0.34976437     0.01350
C321        C  0.36572675  0.09499825  0.35511114    -0.06520
H322        H  0.46120284  0.15541691  0.21427287     0.06840
C323        C  0.36775874  0.23253311  0.18499710    -0.06880
Co324      Co  0.46242694  0.21665909  0.35992486     0.74180
N325        N  0.45540771  0.18410184  0.27162171    -0.26050
Co326      Co  0.38953607  0.16173656  0.28081770     0.74070
C327        C  0.38359879  0.21253980  0.15669615     0.42560
N328        N  0.38252497  0.28873082  0.27583268     0.00970
N329        N  0.38564827  0.19300196  0.22317154     0.01070
N330        N  0.41280696  0.13169419  0.40731979    -0.46900
H331        H  0.56354306  0.29229953  0.32706348     0.06830
N332        N  0.48324155  0.20533631  0.30184906     0.01360
N333        N  0.32371307  0.13768668  0.29011974     0.01100
C334        C  0.26678968  0.09825423  0.25253774     0.42700
N335        N  0.40911143  0.31018967  0.30694473    -0.25510
C336        C  0.44967296  0.21662939  0.45826642    -0.06430
N337        N  0.50813055  0.34206700  0.33698770    -0.46620
N338        N  0.30001511  0.10035513  0.27603002    -0.46840
C339        C  0.43496842  0.23679846  0.48755878     0.42480
N340        N  0.42067862  0.15350975  0.37009405     0.01350
N341        N  0.35051450  0.25420662  0.37310864    -0.25530
N342        N  0.49992430  0.28001496  0.34778176    -0.26020
N343        N  0.32244301  0.23712932  0.34110577     0.00990
H344        H  0.35398422  0.29147683  0.42532631     0.06880
H345        H  0.25373013  0.15276289  0.24038497     0.06910
N346        N  0.39290988  0.13289600  0.33933604    -0.26070
N347        N  0.36957720  0.21826061  0.22500849    -0.25690
N348        N  0.42507709  0.25147343  0.42116613     0.01350
C349        C  0.52123709  0.19424094  0.25584408     0.42750
C350        C  0.42303521  0.35033514  0.29717991    -0.06940
N351        N  0.30591671  0.16115703  0.28260293    -0.25680
H352        H  0.35380296  0.25196887  0.17656791     0.06900
N353        N  0.52261564  0.21126239  0.29418076    -0.46910
H354        H  0.44291295  0.37552952  0.31784038     0.06880
C355        C  0.29499361  0.26528071  0.38162937     0.42580
C356        C  0.54099563  0.30316558  0.33364017    -0.06430
Co357      Co  0.41676983  0.28007739  0.36357893     0.73820
N358        N  0.37687503  0.31168936  0.24545927    -0.46620
C359        C  0.37926206  0.09381980  0.40003875     0.42850
N360        N  0.42050784  0.25842648  0.46248879    -0.46610
Co361      Co  0.34451710  0.22596607  0.28168858     0.73890
C362        C  0.26997256  0.13902566  0.25851817    -0.06940
C363        C  0.47629994  0.17540948  0.24114906    -0.06500
N364        N  0.44275313  0.22771268  0.41830504    -0.26030
N365        N  0.39365792  0.18798360  0.18239625    -0.46790
H366        H  0.33724545  0.07258526  0.33858805     0.06860
C367        C  0.33445279  0.26948215  0.40135512    -0.06920
Cl368      Cl  0.40302119  0.22097914  0.32172907    -0.49920
C369        C  0.40202320  0.35110134  0.25568849     0.42610
H370        H  0.46577908  0.19888587  0.46575159     0.06820
N371        N  0.28989271  0.24526015  0.34410005    -0.46630
C372        C  0.33035318  0.28045847  0.88737724     0.42460
N373        N  0.36162997  0.26527090  0.83775494     0.01350
C374        C  0.33796562  0.06940611  0.83849252    -0.06520
H375        H  0.41011126  0.16408135  0.97310711     0.06840
C376        C  0.52002831  0.26066132  0.89692432    -0.06880
Co377      Co  0.32321310  0.17317085  0.84123623     0.74180
N378        N  0.37214420  0.16046402  0.91662416    -0.26050
Co379      Co  0.40453972  0.15260376  0.86862663     0.74070
C380        C  0.52951792  0.23279431  0.92159610     0.42560
N381        N  0.48883857  0.29704206  0.81520922     0.00970
N382        N  0.46511462  0.19896281  0.89463900     0.01070
N383        N  0.29217730  0.08476526  0.80132468    -0.46900
H384        H  0.28419555  0.21315811  0.90567289     0.06830
N385        N  0.33953422  0.16731055  0.90816060     0.01360
N386        N  0.43193301  0.14384526  0.81486430     0.01100
C387        C  0.46638286  0.11260988  0.83849387     0.42700
N388        N  0.45825619  0.30697835  0.80917387    -0.25510
C389        C  0.27709460  0.17122520  0.75004963    -0.06430
N390        N  0.36227755  0.29711565  0.85661700    -0.46620
N391        N  0.42971759  0.10790184  0.82118989    -0.46840
C392        C  0.29033295  0.19987203  0.71149719     0.42480
N393        N  0.31826545  0.11542880  0.82676930     0.01350
N394        N  0.43378231  0.25411276  0.73679822    -0.25530
N395        N  0.33157206  0.22989440  0.85518441    -0.26020
N396        N  0.46099560  0.23960774  0.74414686     0.00990
H397        H  0.40854406  0.26861367  0.67878872     0.06880
H398        H  0.52708302  0.17535434  0.84354193     0.06910
N399        N  0.34698653  0.10761617  0.84573925    -0.26070
N400        N  0.48371376  0.23567757  0.87630441    -0.25690
N401        N  0.34246529  0.22043571  0.75727044     0.01350
C402        C  0.35480838  0.17906009  0.97605254     0.42750
C403        C  0.47667107  0.34831211  0.80867571    -0.06940
N404        N  0.47117240  0.17466227  0.81307198    -0.25680
H405        H  0.54426030  0.29040838  0.88424699     0.06900
N406        N  0.32843215  0.17951234  0.94363282    -0.46910
H407        H  0.46049155  0.36561006  0.79931961     0.06880
C408        C  0.45559113  0.24345796  0.67436476     0.42580
C409        C  0.30993590  0.23654678  0.88563375    -0.06430
Co410      Co  0.39901689  0.26279280  0.78575449     0.73820
N411        N  0.52771328  0.32958304  0.81934922    -0.46620
C412        C  0.30358221  0.05462192  0.80698983     0.42850
N413        N  0.33073015  0.22915520  0.71936251    -0.46610
Co414      Co  0.47717524  0.23653451  0.81101506     0.73890
C415        C  0.49521274  0.15815035  0.83158002    -0.06940
C416        C  0.38285220  0.16543062  0.95838072    -0.06500
N417        N  0.31220388  0.18630003  0.77637395    -0.26030
N418        N  0.49270311  0.19549322  0.92165235    -0.46790
H419        H  0.35769026  0.05578151  0.84833494     0.06860
C420        C  0.42956570  0.25849069  0.69415919    -0.06920
Cl421      Cl  0.40036208  0.20665295  0.82607333    -0.49920
C422        C  0.52321758  0.36344949  0.81616306     0.42610
H423        H  0.24559508  0.14557338  0.75817412     0.06820
N424        N  0.47495747  0.23247455  0.70702186    -0.46630
C425        C  0.63717312  0.72090117  0.16177403     0.42460
N426        N  0.65703010  0.77371546  0.11843194     0.01350
C427        C  0.54979492  0.88619006  0.08059855    -0.06520
H428        H  0.53672967  0.78754336  0.96800530     0.06840
C429        C  0.68719103  0.85513472  0.93753166    -0.06880
Co430      Co  0.59438768  0.80614582  0.12255419     0.74180
N431        N  0.56358270  0.80163135  0.03205519    -0.26050
Co432      Co  0.60846217  0.86407207  0.02805012     0.74070
C433        C  0.64506025  0.83416444  0.91600735     0.42560
N434        N  0.73959800  0.85140070  0.02899483     0.00970
N435        N  0.63708027  0.85358799  0.97742668     0.01070
N436        N  0.53674961  0.84435655  0.13972939    -0.46900
H437        H  0.57335863  0.72004448  0.17682119     0.06830
N438        N  0.55875695  0.77901727  0.06771371     0.01360
N439        N  0.65645876  0.92626469  0.02226070     0.01100
C440        C  0.69571379  0.98720611  0.99369403     0.42700
N441        N  0.73391592  0.82761427  0.06368419    -0.25510
C442        C  0.62647395  0.84721710  0.21114739    -0.06430
N443        N  0.66820366  0.74700088  0.13401609    -0.46620
N444        N  0.65435308  0.95593730  0.99897197    -0.46840
C445        C  0.66832710  0.86616655  0.23306024     0.42480
N446        N  0.57022022  0.84788476  0.11706143     0.01350
N447        N  0.75071451  0.89535089  0.11729651    -0.25530
N448        N  0.61725278  0.76408619  0.12949300    -0.26020
N449        N  0.75569516  0.91969010  0.08339109     0.00990
H450        H  0.77702401  0.90597004  0.18197223     0.06880
H451        H  0.75786294  0.98751252  0.01303330     0.06910
N452        N  0.57749250  0.87127768  0.08141256    -0.26070
N453        N  0.67879326  0.86584438  0.97581215    -0.25690
N454        N  0.67541826  0.84481686  0.17177807     0.01350
C455        C  0.51668158  0.73628223  0.02128182     0.42750
C456        C  0.75531652  0.80677034  0.05777727    -0.06940
N457        N  0.69710632  0.93586994  0.02907577    -0.25680
H458        H  0.71868627  0.86160927  0.92599635     0.06900
N459        N  0.53111987  0.73974500  0.06272287    -0.46910
H460        H  0.75877046  0.78665851  0.08183339     0.06880
C461        C  0.79597370  0.95966564  0.13283883     0.42580
C462        C  0.60199413  0.73090591  0.15674314    -0.06430
Co463      Co  0.70409135  0.83452059  0.11810454     0.73820
N464        N  0.76433033  0.84854290  0.99902285    -0.46620
C465        C  0.52204329  0.86785375  0.11906822     0.42850
N466        N  0.69663417  0.86286368  0.20707592    -0.46610
Co467      Co  0.71827345  0.89392459  0.02875036     0.73890
C468        C  0.72323152  0.97462733  0.01706536    -0.06940
C469        C  0.53817225  0.77735479  0.00091660    -0.06500
N470        N  0.63434662  0.83559602  0.17327797    -0.26030
N471        N  0.61597847  0.83477093  0.94259377    -0.46790
H472        H  0.54438433  0.90154782  0.05262010     0.06860
C473        C  0.77611324  0.91745053  0.14936500    -0.06920
Cl474      Cl  0.65630955  0.84989933  0.07454666    -0.49920
C475        C  0.77538441  0.82070088  0.01447499     0.42610
H476        H  0.59528591  0.84213978  0.22214106     0.06820
N477        N  0.78182851  0.95887795  0.09148551    -0.46630
C478        C  0.76738333  0.84986081  0.67090709     0.42460
N479        N  0.74299494  0.86247714  0.61088880     0.01350
C480        C  0.59718948  0.93524428  0.62426129    -0.06520
H481        H  0.55326296  0.80157997  0.70797223     0.06840
C482        C  0.54451027  0.72032713  0.58229952    -0.06880
Co483      Co  0.69350278  0.90497508  0.62865281     0.74180
N484        N  0.60864195  0.84314269  0.66897239    -0.26050
Co485      Co  0.58442683  0.84377789  0.60970023     0.74070
C486        C  0.51425237  0.71268688  0.61751326     0.42560
N487        N  0.65312139  0.77146231  0.53992106     0.00970
N488        N  0.55614691  0.77828566  0.60781487     0.01070
N489        N  0.66938706  0.96923099  0.62594596    -0.46900
H490        H  0.74330216  0.88555315  0.71025519     0.06830
N491        N  0.65022320  0.86645872  0.67693191     0.01360
N492        N  0.56377033  0.84458773  0.54774138     0.01100
C493        C  0.51461609  0.83954286  0.50248948     0.42700
N494        N  0.69390944  0.79785533  0.54869391    -0.25510
C495        C  0.74496140  0.97974211  0.56671967    -0.06430
N496        N  0.76229372  0.84223643  0.62773845    -0.46620
N497        N  0.53486526  0.85625835  0.53949438    -0.46840
C498        C  0.75753278  0.98486944  0.52137259     0.42480
N499        N  0.65489701  0.93067309  0.61692367     0.01350
N500        N  0.69177876  0.85581279  0.48618758    -0.25530
N501        N  0.73333719  0.88070501  0.64101505    -0.26020
N502        N  0.64994110  0.83228963  0.47911787     0.00990
H503        H  0.74570222  0.89412112  0.44394331     0.06880
H504        H  0.52654484  0.79553718  0.46071588     0.06910
N505        N  0.61246908  0.90913048  0.61472087    -0.26070
N506        N  0.56845613  0.76117851  0.57838802    -0.25690
N507        N  0.74112122  0.92380411  0.54506225     0.01350
C508        C  0.62168434  0.83460613  0.73662516     0.42750
C509        C  0.71729756  0.77871425  0.55144632    -0.06940
N510        N  0.56626413  0.82136942  0.51774267    -0.25680
H511        H  0.54473184  0.69888353  0.55976015     0.06900
N512        N  0.65936955  0.86272259  0.71784619    -0.46910
H513        H  0.75213574  0.79386604  0.55488847     0.06880
C514        C  0.67638629  0.85842021  0.41706343     0.42580
C515        C  0.74881756  0.87595572  0.67935264    -0.06430
Co516      Co  0.71850838  0.86035017  0.54748804     0.73820
N517        N  0.64814131  0.73393458  0.53465185    -0.46620
C518        C  0.63622948  0.97580949  0.63241468     0.42850
N519        N  0.75412613  0.94873493  0.50989656    -0.46610
Co520      Co  0.60882230  0.79551387  0.52806168     0.73890
C521        C  0.53541116  0.81576952  0.48776436    -0.06940
C522        C  0.58775584  0.82199739  0.70480562    -0.06500
N523        N  0.73346777  0.94081389  0.57801074    -0.26030
N524        N  0.52279277  0.75009633  0.63129018    -0.46790
H525        H  0.56348691  0.92619735  0.62948706     0.06860
C526        C  0.71146150  0.87325540  0.44843080    -0.06920
Cl527      Cl  0.65098334  0.85072590  0.57829663    -0.49920
C528        C  0.68760276  0.73622862  0.54231674     0.42610
H529        H  0.73823619  0.00002120  0.58487738     0.06820
N530        N  0.63921056  0.83294491  0.43793558    -0.46630
C531        C  0.94171321  0.29343442  0.20764228     0.42460
N532        N  0.90356053  0.27105251  0.26662413     0.01350
C533        C  0.77603700  0.06112480  0.29131010    -0.06520
H534        H  0.72781487  0.12905415  0.17743084     0.06840
C535        C  0.69717910  0.20474784  0.28285084    -0.06880
Co536      Co  0.86585054  0.18023681  0.27025261     0.74180
N537        N  0.78112588  0.14572695  0.22208030    -0.26050
Co538      Co  0.75483024  0.13099082  0.28397730     0.74070
C539        C  0.67049112  0.17714653  0.24960608     0.42560
N540        N  0.79810552  0.26942621  0.32028825     0.00970
N541        N  0.71813762  0.16043719  0.27112981     0.01070
N542        N  0.84802812  0.09504472  0.28230109    -0.46900
H543        H  0.91919277  0.22867910  0.18562419     0.06830
N544        N  0.82352764  0.16321923  0.21664679     0.01360
N545        N  0.73305774  0.11955224  0.34736715     0.01100
C546        C  0.72291095  0.09369950  0.41238167     0.42700
N547        N  0.84048487  0.28950038  0.31407992    -0.25510
C548        C  0.93648053  0.18900147  0.34336841    -0.06430
N549        N  0.93267619  0.30525393  0.24583390    -0.46620
N550        N  0.72432431  0.08580976  0.37028320    -0.46840
C551        C  0.95717258  0.21705747  0.37970395     0.42480
N552        N  0.83360572  0.12024999  0.29249633     0.01350
N553        N  0.85066089  0.25096094  0.39273820    -0.25530
N554        N  0.89601805  0.23846393  0.24524709    -0.26020
N555        N  0.80824177  0.22997834  0.39735852     0.00990
H556        H  0.90178002  0.28557847  0.43839637     0.06880
H557        H  0.73542751  0.15425520  0.44138349     0.06910
N558        N  0.79104590  0.10125569  0.29604150    -0.26070
N559        N  0.72487147  0.19162610  0.29462331    -0.25690
N560        N  0.91170545  0.23139247  0.34713401     0.01350
C561        C  0.79809033  0.15953392  0.15241237     0.42750
C562        C  0.85310973  0.32931461  0.30656123    -0.06940
N563        N  0.73826452  0.14985223  0.37183166    -0.25680
H564        H  0.69333639  0.22810693  0.29879428     0.06900
N565        N  0.83504405  0.17205282  0.17514818    -0.46910
H566        H  0.88633805  0.35363397  0.30398417     0.06880
C567        C  0.83012631  0.25140921  0.46094348     0.42580
C568        C  0.91663652  0.24945998  0.20745214    -0.06430
Co569      Co  0.87761716  0.26170388  0.33003324     0.73820
N570        N  0.78087097  0.29371747  0.31867578    -0.46620
C571        C  0.81371464  0.05728317  0.27869890     0.42850
N572        N  0.93980350  0.24201824  0.37939586    -0.46610
Co573      Co  0.76673214  0.21012063  0.34616359     0.73890
C574        C  0.73111602  0.13597943  0.41351911    -0.06940
C575        C  0.76215853  0.14177787  0.18318172    -0.06500
N576        N  0.90837605  0.20017081  0.32524732    -0.26030
N577        N  0.68452190  0.14958287  0.24457750    -0.46790
H578        H  0.74228146  0.03939816  0.28578309     0.06860
C579        C  0.86784398  0.26537306  0.43192380    -0.06920
Cl580      Cl  0.81635467  0.19574727  0.30773003    -0.49920
C581        C  0.81338593  0.33193559  0.31040485     0.42610
H582        H  0.94205175  0.16482240  0.33232203     0.06820
N583        N  0.79495171  0.22966750  0.43708658    -0.46630
C584        C  0.81343521  0.36708411  0.80857260     0.42460
N585        N  0.82807689  0.32162220  0.78572273     0.01350
C586        C  0.68287147  0.11447962  0.77315892    -0.06520
H587        H  0.69221427  0.18064141  0.92331846     0.06840
C588        C  0.83972780  0.20764712  0.94107125    -0.06880
Co589      Co  0.74940086  0.24208648  0.77002349     0.74180
N590        N  0.71869770  0.20182584  0.85886522    -0.26050
Co591      Co  0.74720413  0.16864802  0.84154990     0.74070
C592        C  0.80058312  0.18819009  0.96734988     0.42560
N593        N  0.89459295  0.27913644  0.85693462     0.00970
N594        N  0.78274079  0.18369275  0.90003928     0.01070
N595        N  0.68948401  0.16079559  0.72065590    -0.46900
H596        H  0.73970389  0.32190702  0.80197544     0.06830
N597        N  0.72166384  0.23145709  0.83228716     0.01360
N598        N  0.77933940  0.13941926  0.81963860     0.01100
C599        C  0.78083024  0.08469585  0.83952391     0.42700
N600        N  0.89442778  0.30675255  0.82896924    -0.25510
C601        C  0.77188212  0.24674763  0.66947780    -0.06430
N602        N  0.84589907  0.35935748  0.79943494    -0.46620
N603        N  0.75710152  0.09924069  0.81962738    -0.46840
C604        C  0.81303047  0.26330851  0.64524849     0.42480
N605        N  0.71212554  0.17909515  0.75600266     0.01350
N606        N  0.88902190  0.25681472  0.75641463    -0.25530
N607        N  0.78566709  0.30352756  0.78482852    -0.26020
N608        N  0.89413433  0.23204693  0.78447782     0.00990
H609        H  0.92430831  0.29294561  0.70176105     0.06880
H610        H  0.85179442  0.12294003  0.86160744     0.06910
N611        N  0.71004161  0.15225315  0.78599448    -0.26070
N612        N  0.82541221  0.20322943  0.90009120    -0.25690
N613        N  0.82628099  0.27379858  0.71301487     0.01350
C614        C  0.69091489  0.23640002  0.89027566     0.42750
C615        C  0.92184955  0.34429661  0.84298780    -0.06940
N616        N  0.82032001  0.15374537  0.83040449    -0.25680
H617        H  0.87323098  0.22087606  0.95093625     0.06900
N618        N  0.70748663  0.25387357  0.85066588    -0.46910
H619        H  0.93016803  0.37300247  0.82572941     0.06880
C620        C  0.94521825  0.25137753  0.73701126     0.42580
C621        C  0.77307631  0.32978824  0.79827891    -0.06430
Co622      Co  0.85977283  0.29023559  0.77081098     0.73820
N623        N  0.92142301  0.29606415  0.88988373    -0.46620
C624        C  0.66913183  0.11939898  0.72941608     0.42850
N625        N  0.84485464  0.27981910  0.67455994    -0.46610
Co626      Co  0.85957528  0.21676877  0.84324988     0.73890
C627        C  0.82438845  0.12101491  0.84362584    -0.06940
C628        C  0.69914913  0.20185470  0.89580978    -0.06500
N629        N  0.78364403  0.25456642  0.71138010    -0.26030
N630        N  0.76638518  0.17374342  0.94004605    -0.46790
H631        H  0.67649362  0.08639866  0.79070264     0.06860
C632        C  0.91693309  0.26742285  0.72414466    -0.06920
Cl633      Cl  0.80399987  0.22945239  0.80625142    -0.49920
C634        C  0.93905269  0.33724931  0.88390179     0.42610
H635        H  0.73895707  0.23087740  0.65765489     0.06820
N636        N  0.92957585  0.22991647  0.77534449    -0.46630
C637        C  0.86012001  0.26123054  0.53473939    -0.05780
C638        C  0.82752695  0.25910292  0.50714103     0.00150
C639        C  0.79177756  0.26148767  0.52459205    -0.08420
C640        C  0.78863458  0.26278039  0.56984408    -0.05800
C641        C  0.82030051  0.26317389  0.59786595     0.00140
C642        C  0.85750780  0.26352809  0.57997221    -0.08330
C643        C  0.89433081  0.26582214  0.60776340     0.62050
H644        H  0.88726228  0.25997492  0.52052583     0.12740
H645        H  0.76108308  0.26350647  0.58373107     0.12750
C646        C  0.75701689  0.26321689  0.49622011     0.62280
F647        F  0.92451654  0.26142694  0.58376535    -0.22880
F648        F  0.87825866  0.23477421  0.63962462    -0.20210
F649        F  0.91567450  0.30382782  0.62620227    -0.19890
F650        F  0.72938231  0.22478147  0.48069389    -0.19940
F651        F  0.77593330  0.29109493  0.46170928    -0.20270
F652        F  0.73228502  0.27560815  0.51921760    -0.22940
C653        C  0.80533175  0.14227467  0.07803182    -0.05780
C654        C  0.79640026  0.16637406  0.10526420     0.00150
C655        C  0.78863724  0.19766083  0.08729879    -0.08420
C656        C  0.78873803  0.20291174  0.04172658    -0.05800
C657        C  0.79808028  0.17901590  0.01447987     0.00140
C658        C  0.80692338  0.14844462  0.03262113    -0.08330
C659        C  0.81845170  0.12280152  0.00426123     0.62050
H660        H  0.81195209  0.11909666  0.09279223     0.12740
H661        H  0.78278362  0.22651644  0.02699571     0.12750
C662        C  0.78227333  0.22640290  0.11616364     0.62280
F663        F  0.82089516  0.09175867  0.02805676    -0.22880
F664        F  0.85810865  0.14740189  0.98438271    -0.20210
F665        F  0.78734016  0.10493470  0.97275201    -0.19890
F666        F  0.81760105  0.24576294  0.14334744    -0.19940
F667        F  0.74521242  0.20443897  0.14109839    -0.20270
F668        F  0.77817248  0.25640561  0.09203181    -0.22940
C669        C  0.61283628  0.02696228  0.65533910    -0.05780
C670        C  0.64374053  0.01337081  0.65636463     0.00150
C671        C  0.68336046  0.03734163  0.67965654    -0.08420
C672        C  0.69197622  0.07513129  0.69577424    -0.05800
C673        C  0.66070740  0.08748229  0.69704692     0.00140
C674        C  0.62015489  0.06296318  0.67691232    -0.08330
C675        C  0.58493073  0.07470418  0.67910539     0.62050
H676        H  0.58264832  0.00878982  0.63848395     0.12740
H677        H  0.72273468  0.09422818  0.71137892     0.12750
C678        C  0.71604895  0.02297222  0.69162695     0.62280
F679        F  0.54807500  0.04773132  0.65706150    -0.22880
F680        F  0.59985429  0.11367980  0.66067218    -0.20210
F681        F  0.57379210  0.07448028  0.72210813    -0.19890
F682        F  0.74143227  0.02741980  0.65596667    -0.19940
F683        F  0.69481855  0.98250358  0.70692210    -0.20270
F684        F  0.74378812  0.04561790  0.72444980    -0.22940
C685        C  0.77840803  0.05438775  0.49209307    -0.05780
C686        C  0.74875889  0.01226150  0.49197850     0.00150
C687        C  0.70843396  0.99859254  0.47048689    -0.08420
C688        C  0.70018145  0.02745504  0.44824288    -0.05800
C689        C  0.73052706  0.06920076  0.44650025     0.00140
C690        C  0.77045042  0.08338778  0.46903144    -0.08330
C691        C  0.80491062  0.12841461  0.46834144     0.62050
H692        H  0.80806661  0.06433281  0.51041118     0.12740
H693        H  0.67058397  0.01733253  0.42972207     0.12750
C694        C  0.67533606  0.95363106  0.46784974     0.62280
F695        F  0.84208335  0.13449280  0.49000633    -0.22880
F696        F  0.78920023  0.15082496  0.48876583    -0.20210
F697        F  0.81646202  0.14315936  0.42588789    -0.19890
F698        F  0.66532294  0.93462968  0.50876352    -0.19940
F699        F  0.69272533  0.93583951  0.44248472    -0.20270
F700        F  0.63707157  0.94753676  0.44861039    -0.22940
C701        C  0.83778052  0.99851964  0.19496331    -0.05780
C702        C  0.80642417  0.99263000  0.16330790     0.00150
C703        C  0.77920400  0.01015321  0.16837551    -0.08420
C704        C  0.78278795  0.03084504  0.20656780    -0.05800
C705        C  0.81201573  0.03420097  0.23986832     0.00140
C706        C  0.84164687  0.01980235  0.23299508    -0.08330
C707        C  0.87670726  0.02640531  0.26582493     0.62050
H708        H  0.85818088  0.98479109  0.19034128     0.12740
H709        H  0.76246806  0.04468173  0.21051233     0.12750
C710        C  0.74548368  0.00607689  0.13471081     0.62280
F711        F  0.89964664  0.00687623  0.25451590    -0.22880
F712        F  0.85829839  0.01114869  0.30641333    -0.20210
F713        F  0.90574058  0.06789733  0.26803946    -0.19890
F714        F  0.71554078  0.96511906  0.12985353    -0.19940
F715        F  0.76578398  0.02344863  0.09535966    -0.20270
F716        F  0.72301004  0.02595281  0.14643996    -0.22940
C717        C  0.73980522  0.99979196  0.92680487    -0.05780
C718        C  0.71240209  0.00928840  0.95134346     0.00150
C719        C  0.70604197  0.04214837  0.93758779    -0.08420
C720        C  0.72970274  0.06632205  0.90144904    -0.05800
C721        C  0.75835947  0.05770034  0.87780894     0.00140
C722        C  0.76227716  0.02310341  0.88965533    -0.08330
C723        C  0.78939952  0.01085225  0.86265102     0.62050
H724        H  0.74419662  0.97412206  0.93738325     0.12740
H725        H  0.72649042  0.09291802  0.89201537     0.12750
C726        C  0.67600601  0.05256161  0.96217585     0.62280
F727        F  0.78855674  0.97550005  0.87930299    -0.22880
F728        F  0.83198227  0.04202087  0.86167520    -0.20210
F729        F  0.77358951  0.00383649  0.82056741    -0.19890
F730        F  0.69004552  0.06143604  0.00464601    -0.19940
F731        F  0.63449295  0.01940894  0.96231347    -0.20270
F732        F  0.67452445  0.08615613  0.94338593    -0.22940
C733        C  0.61516041  0.79590344  0.85030971    -0.05780
C734        C  0.63730478  0.83403057  0.86988958     0.00150
C735        C  0.64309483  0.87024044  0.84759544    -0.08420
C736        C  0.63355804  0.86817367  0.80370343    -0.05800
C737        C  0.61610021  0.83098660  0.78300948     0.00140
C738        C  0.60258806  0.79362379  0.80664458    -0.08330
C739        C  0.57336513  0.75234845  0.78679284     0.62050
H740        H  0.60678800  0.76817799  0.86973904     0.12740
H741        H  0.64132139  0.89593525  0.78455297     0.12750
C742        C  0.65975791  0.91093994  0.86946346     0.62280
F743        F  0.56633751  0.72001475  0.81524647    -0.22880
F744        F  0.59082624  0.74784680  0.74889214    -0.20210
F745        F  0.53375052  0.74960601  0.77718876    -0.19890
F746        F  0.70052244  0.92268454  0.88535842    -0.19940
F747        F  0.63239807  0.90721513  0.90308619    -0.20270
F748        F  0.66257506  0.94179476  0.84093704    -0.22940
C749        C  0.69955117  0.85481457  0.29955862    -0.05780
C750        C  0.67542756  0.87162995  0.27980684     0.00150
C751        C  0.65528235  0.88817753  0.30555621    -0.08420
C752        C  0.65661195  0.88355291  0.35085910    -0.05800
C753        C  0.67960830  0.86551267  0.37024759     0.00140
C754        C  0.70178968  0.85118481  0.34469972    -0.08330
C755        C  0.72529900  0.82979316  0.36483540     0.62050
H756        H  0.71487177  0.84241727  0.27936229     0.12740
H757        H  0.63969588  0.89422352  0.37135101     0.12750
C758        C  0.63233555  0.91071371  0.28713292     0.62280
F759        F  0.73879520  0.81292696  0.33364475    -0.22880
F760        F  0.69813826  0.79826116  0.39328201    -0.20210
F761        F  0.76151702  0.85764317  0.38684908    -0.19890
F762        F  0.58802712  0.88535339  0.29066591    -0.19940
F763        F  0.64303770  0.92339291  0.24405673    -0.20270
F764        F  0.64392252  0.94549658  0.31055692    -0.22940
C765        C  0.59577704  0.23385724  0.94970185    -0.05780
C766        C  0.57225173  0.23610523  0.91317112     0.00150
C767        C  0.59041640  0.24012361  0.87022137    -0.08420
C768        C  0.62433201  0.23220517  0.86703597    -0.05800
C769        C  0.64958974  0.23345634  0.90241830     0.00140
C770        C  0.63617724  0.23526854  0.94481962    -0.08330
C771        C  0.66452120  0.23948911  0.98380375     0.62050
H772        H  0.58301775  0.23237265  0.98194861     0.12740
H773        H  0.63408037  0.22893073  0.83477531     0.12750
C774        C  0.58181649  0.25475150  0.82524633     0.62280
F775        F  0.64689858  0.24399986  0.02174805    -0.22880
F776        F  0.70486738  0.27372046  0.97753665    -0.20210
F777        F  0.66933150  0.20502098  0.98896186    -0.19890
F778        F  0.61784770  0.29187104  0.81395563    -0.19940
F779        F  0.54694003  0.26049570  0.82116620    -0.20270
F780        F  0.57700789  0.22728306  0.79368245    -0.22940
C781        C  0.62240712  0.19821511  0.21172086    -0.05780
C782        C  0.62641261  0.17038593  0.24089418     0.00150
C783        C  0.59179953  0.14535293  0.26973257    -0.08420
C784        C  0.55568976  0.15157730  0.27088641    -0.05800
C785        C  0.55363891  0.18205259  0.24452662     0.00140
C786        C  0.58616272  0.20434953  0.21299498    -0.08330
C787        C  0.58328152  0.23585118  0.18260771     0.62050
H788        H  0.64940607  0.21739847  0.19027886     0.12740
H789        H  0.53011162  0.13467638  0.29458328     0.12750
C790        C  0.59434694  0.11421685  0.30120721     0.62280
F791        F  0.61749879  0.25350040  0.15332968    -0.22880
F792        F  0.58368783  0.26669658  0.20647659    -0.20210
F793        F  0.54513323  0.21706452  0.15924168    -0.19890
F794        F  0.62759518  0.13396974  0.33054023    -0.19940
F795        F  0.60185360  0.08714614  0.27828194    -0.20270
F796        F  0.55628036  0.09164956  0.32467230    -0.22940
C797        C  0.40886980  0.20885976  0.56228265    -0.05780
C798        C  0.44181942  0.23866164  0.53551582     0.00150
C799        C  0.48214870  0.26612850  0.55438640    -0.08420
C800        C  0.48704142  0.26465174  0.60008534    -0.05800
C801        C  0.45348882  0.23578087  0.62705799     0.00140
C802        C  0.41408723  0.20665445  0.60778568    -0.08330
C803        C  0.37812145  0.17262244  0.63521196     0.62050
H804        H  0.37896388  0.18708936  0.54710977     0.12740
H805        H  0.51657966  0.28709324  0.61530148     0.12750
C806        C  0.51961891  0.29716863  0.52628566     0.62280
F807        F  0.36165675  0.18859962  0.66439411    -0.23240
F808        F  0.39427228  0.15034283  0.65787470    -0.20210
F809        F  0.34398744  0.14594826  0.61004908    -0.19890
F810        F  0.50721439  0.32208567  0.50291568    -0.19940
F811        F  0.53178997  0.27693826  0.49763809    -0.20270
F812        F  0.55543727  0.32191946  0.55098782    -0.22940
C813        C  0.40928861  0.22762238  0.08049474    -0.05780
C814        C  0.37457731  0.20757380  0.10955467     0.00150
C815        C  0.33193467  0.18429835  0.09313547    -0.08420
C816        C  0.32597998  0.17838018  0.04813925    -0.05800
C817        C  0.36097051  0.19671016  0.01931903     0.00140
C818        C  0.40295030  0.22410241  0.03531444    -0.08330
C819        C  0.44187533  0.25048619  0.00629175     0.62050
H820        H  0.44154149  0.24684887  0.09316004     0.12740
H821        H  0.29419526  0.15800622  0.03527702     0.12750
C822        C  0.29307411  0.16448528  0.12309764     0.62280
F823        F  0.46219181  0.29046916  0.02007591    -0.22880
F824        F  0.43061917  0.25157886  0.96317791    -0.20210
F825        F  0.47091048  0.23573273  0.00925553    -0.19890
F826        F  0.28640597  0.19432465  0.14101095    -0.19940
F827        F  0.30054255  0.14251293  0.15581174    -0.20270
F828        F  0.25570698  0.13800999  0.10141652    -0.22940
C829        C  0.47211809  0.63853302  0.63850814    -0.05780
C830        C  0.47207538  0.67397917  0.62155338     0.00150
C831        C  0.43420993  0.67009187  0.60119879    -0.08420
C832        C  0.39834511  0.63060145  0.59682134    -0.05800
C833        C  0.39929244  0.59447439  0.61039249     0.00140
C834        C  0.43617273  0.59875159  0.63394468    -0.08330
C835        C  0.43847167  0.56193738  0.65346352     0.62050
H836        H  0.50154359  0.64220466  0.65376032     0.12740
H837        H  0.36958180  0.62794826  0.58123354     0.12750
C838        C  0.43239760  0.70744873  0.58239677     0.62280
F839        F  0.47586285  0.57353288  0.67747611    -0.22880
F840        F  0.43805984  0.53740299  0.62069269    -0.20210
F841        F  0.40354231  0.53960953  0.68111558    -0.19890
F842        F  0.46445130  0.72759113  0.55121572    -0.19940
F843        F  0.43846164  0.73377587  0.61542929    -0.20270
F844        F  0.39302341  0.69707425  0.56286897    -0.22940
C845        C  0.23818516  0.25722492  0.66053933    -0.05780
C846        C  0.25485928  0.26332310  0.61794771     0.00150
C847        C  0.27388375  0.23990236  0.60468519    -0.08420
C848        C  0.27882785  0.21355766  0.63555234    -0.05800
C849        C  0.26552631  0.21013266  0.67913456     0.00140
C850        C  0.24358402  0.23130683  0.69158249    -0.08330
C851        C  0.22881288  0.22889358  0.73826315     0.62050
H852        H  0.22303293  0.27487491  0.67012569     0.12740
H853        H  0.29630153  0.19783005  0.62667410     0.12750
C854        C  0.28855351  0.24268861  0.55810763     0.62280
F855        F  0.20562096  0.24952028  0.74287176    -0.22880
F856        F  0.26431858  0.24612958  0.76553412    -0.20210
F857        F  0.20228392  0.18828711  0.75110507    -0.19890
F858        F  0.32054740  0.28225790  0.54751534    -0.19940
F859        F  0.25355342  0.23225026  0.53095449    -0.20270
F860        F  0.30477700  0.21629148  0.55122844    -0.22940
C861        C  0.26628978  0.33694836  0.43532848    -0.05780
C862        C  0.30187757  0.37484935  0.42201284     0.00150
C863        C  0.32736894  0.37629093  0.38622303    -0.08420
C864        C  0.31914366  0.33899701  0.36819201    -0.05800
C865        C  0.28712012  0.30067145  0.38543695     0.00140
C866        C  0.25836353  0.29975575  0.41729159    -0.08330
C867        C  0.22009616  0.25932673  0.43241996     0.62050
H868        H  0.24605960  0.33646737  0.46172599     0.12740
H869        H  0.34111942  0.33957353  0.34361241     0.12750
C870        C  0.36515939  0.41558638  0.36766180     0.62280
F871        F  0.19612252  0.26460257  0.46424878    -0.22880
F872        F  0.23413077  0.23298898  0.44910730    -0.20210
F873        F  0.19336051  0.24140048  0.39733648    -0.19890
F874        F  0.40256577  0.41253280  0.37024181    -0.19940
F875        F  0.37236250  0.45029594  0.38887155    -0.20270
F876        F  0.35707733  0.42091040  0.32451298    -0.22940
C877        C  0.98242202  0.22293143  0.45576362    -0.05780
C878        C  0.99183933  0.22253153  0.41154026     0.00150
C879        C  0.03567685  0.23786417  0.39903176    -0.08420
C880        C  0.06878440  0.25796086  0.43011718    -0.05800
C881        C  0.05920785  0.26178905  0.47335843     0.00140
C882        C  0.01539612  0.24184781  0.48697881    -0.08330
C883        C  0.00374761  0.24236033  0.53408934     0.62050
H884        H  0.94885476  0.21087809  0.46516434     0.12740
H885        H  0.10248373  0.27321871  0.42015566     0.12750
C886        C  0.04750074  0.23499736  0.35265272     0.62280
F887        F  0.95960864  0.21885573  0.54145612    -0.22880
F888        F  0.01676593  0.28216327  0.54559029    -0.20210
F889        F  0.02443486  0.22644140  0.56033254    -0.19890
F890        F  0.03423786  0.25640877  0.32468508    -0.19940
F891        F  0.02729800  0.19428388  0.34151236    -0.20270
F892        F  0.09173638  0.25107474  0.34736413    -0.22940
C893        C  0.04303432  0.30637532  0.66896604    -0.05780
C894        C  0.05627827  0.34710390  0.68025230     0.00150
C895        C  0.03807336  0.35443408  0.71682969    -0.08420
C896        C  0.00675046  0.32060101  0.74126647    -0.05800
C897        C  0.99109929  0.27997821  0.72788122     0.00140
C898        C  0.01093105  0.27263884  0.69270981    -0.08330
C899        C  0.99760861  0.22910047  0.68071203     0.62050
H900        H  0.05872192  0.30125618  0.64173474     0.12740
H901        H  0.99059784  0.32566999  0.76812288     0.12750
C902        C  0.05068662  0.39792267  0.72834696     0.62280
F903        F  0.02472831  0.22811257  0.64940118    -0.22880
F904        F  0.95573282  0.21017331  0.66488406    -0.20210
F905        F  0.99949421  0.20728925  0.71733719    -0.19890
F906        F  0.04459372  0.41814277  0.69254886    -0.19940
F907        F  0.09383138  0.41859503  0.74023518    -0.20270
F908        F  0.02586174  0.39869454  0.76225042    -0.22940
C909        C  0.41761238  0.64995547  0.97031614    -0.05780
C910        C  0.41793788  0.61687929  0.99267554     0.00150
C911        C  0.45504220  0.62233365  0.01579484    -0.08420
C912        C  0.48908012  0.66234980  0.02015732    -0.05800
C913        C  0.48653361  0.69639699  0.00265525     0.00140
C914        C  0.45190881  0.69014517  0.97421862    -0.08330
C915        C  0.44960347  0.72493720  0.94942208     0.62050
H916        H  0.38872353  0.64428725  0.95237507     0.12740
H917        H  0.51666760  0.66754572  0.04014877     0.12750
C918        C  0.45736274  0.58645001  0.03827631     0.62280
F919        F  0.41150644  0.71120666  0.92607848    -0.22880
F920        F  0.48349303  0.74320120  0.91993103    -0.20210
F921        F  0.45160570  0.75353926  0.97786207    -0.19890
F922        F  0.45099403  0.55755374  0.00805655    -0.19940
F923        F  0.42589882  0.56848282  0.07034724    -0.20270
F924        F  0.49722191  0.59866148  0.05762413    -0.22940
C925        C  0.35543275  0.38287508  0.24328363    -0.05780
C926        C  0.39505803  0.38416567  0.23544896     0.00150
C927        C  0.42307800  0.41168116  0.20288226    -0.08420
C928        C  0.40977132  0.43616974  0.17801693    -0.05800
C929        C  0.36959581  0.43424110  0.18517165     0.00140
C930        C  0.34249740  0.40800133  0.21920593    -0.08330
C931        C  0.29948150  0.40555347  0.22902987     0.62050
H932        H  0.33388198  0.36080944  0.26753972     0.12740
H933        H  0.42990190  0.45579765  0.15143316     0.12750
C934        C  0.46584342  0.41342359  0.19332600     0.62280
F935        F  0.27756266  0.37738526  0.26259911    -0.22880
F936        F  0.27334467  0.39394580  0.19255768    -0.20210
F937        F  0.30690554  0.44367322  0.24124086    -0.19890
F938        F  0.45843193  0.37568919  0.17958618    -0.19940
F939        F  0.49055179  0.42295238  0.23076733    -0.20270
F940        F  0.48916536  0.44282990  0.16120842    -0.22940
C941        C  0.28614179  0.33936374  0.94496430    -0.05780
C942        C  0.27522164  0.31777369  0.98561001     0.00150
C943        C  0.29037686  0.29003002  0.99615973    -0.08420
C944        C  0.31171920  0.28103352  0.96382895    -0.05800
C945        C  0.32005218  0.30048202  0.92214057     0.00140
C946        C  0.30972143  0.33195366  0.91337279    -0.08330
C947        C  0.32385517  0.35738778  0.87119805     0.62050
H948        H  0.27715612  0.36298821  0.93874830     0.12740
H949        H  0.32132465  0.25792207  0.97060520     0.12750
C950        C  0.28409635  0.27045243  0.04151303     0.62280
F951        F  0.31436485  0.38912913  0.87088254    -0.22880
F952        F  0.30335518  0.33289472  0.83637916    -0.20210
F953        F  0.36821819  0.37457950  0.86624767    -0.19890
F954        F  0.24035502  0.24833594  0.05125184    -0.19940
F955        F  0.30457034  0.30065289  0.07160943    -0.20270
F956        F  0.30117697  0.24416314  0.04515876    -0.22940
C957        C  0.28424630  0.45887965  0.77500680    -0.05780
C958        C  0.26329994  0.41821155  0.76118155     0.00150
C959        C  0.24324232  0.38532727  0.79237389    -0.08420
C960        C  0.24240592  0.39441116  0.83609305    -0.05800
C961        C  0.26230020  0.43494779  0.84984459     0.00140
C962        C  0.28378609  0.46785217  0.81913343    -0.08330
C963        C  0.30383540  0.51200757  0.83273868     0.62050
H964        H  0.29946924  0.48361064  0.75072649     0.12740
H965        H  0.22620252  0.36965280  0.86018960     0.12750
C966        C  0.22385882  0.34076832  0.78000034     0.62280
F967        F  0.32145780  0.53951793  0.79763691    -0.22880
F968        F  0.33643088  0.52001846  0.86255414    -0.20210
F969        F  0.27247292  0.51844384  0.85160226    -0.19890
F970        F  0.25309839  0.33609331  0.75470813    -0.19940
F971        F  0.18593209  0.32894160  0.75704273    -0.20270
F972        F  0.21420920  0.31461993  0.81631964    -0.22940
C973        C  0.21230497  0.43178136  0.28256483    -0.05780
C974        C  0.19485044  0.45422838  0.26145700     0.00150
C975        C  0.16593092  0.46289731  0.28449293    -0.08420
C976        C  0.15985264  0.45306645  0.32956192    -0.05800
C977        C  0.18052343  0.43373839  0.35126704     0.00140
C978        C  0.20469167  0.42032672  0.32691729    -0.08330
C979        C  0.22278295  0.39365479  0.34577954     0.62050
H980        H  0.23177738  0.42268870  0.26404953     0.12740
H981        H  0.14092599  0.46248359  0.34863744     0.12750
C982        C  0.14306147  0.48385673  0.26208128     0.62280
F983        F  0.20719782  0.35847618  0.32209619    -0.22880
F984        F  0.21118416  0.38154316  0.38881428    -0.20210
F985        F  0.26746239  0.41486591  0.34253264    -0.19890
F986        F  0.11505015  0.45860069  0.23099436    -0.19940
F987        F  0.17315194  0.52060483  0.24231408    -0.20270
F988        F  0.11902115  0.49215107  0.29112153    -0.22940
C989        C  0.02188181  0.39819051  0.97029251    -0.05780
C990        C  0.05957108  0.41913658  0.94469297     0.00150
C991        C  0.05641089  0.41696166  0.89883252    -0.08420
C992        C  0.01591175  0.39136755  0.88009921    -0.05800
C993        C  0.97894999  0.36753807  0.90585002     0.00140
C994        C  0.98134342  0.37214037  0.95148668    -0.08330
C995        C  0.94118895  0.34978288  0.97991842     0.62050
H996        H  0.02485175  0.40037147  0.00533379     0.12740
H997        H  0.01335975  0.38800988  0.84521490     0.12750
C998        C  0.09604035  0.44099534  0.86995709     0.62280
F999        F  0.94976349  0.36123587  0.02280530    -0.22880
F1000       F  0.92538311  0.30788155  0.97897690    -0.20210
F1001       F  0.90970876  0.35884296  0.96466899    -0.19890
F1002       F  0.12355489  0.42463857  0.87451782    -0.19940
F1003       F  0.11770051  0.48162841  0.88151920    -0.20270
F1004       F  0.08498792  0.44001552  0.82652593    -0.22940
C1005       C  0.98298289  0.30701954  0.14039616    -0.05780
C1006       C  0.98410238  0.31112566  0.18580801     0.00150
C1007       C  0.02152018  0.31744690  0.20916305    -0.08420
C1008       C  0.05603744  0.31841642  0.18627205    -0.05800
C1009       C  0.05616264  0.31724292  0.14062936     0.00140
C1010       C  0.01877578  0.31072401  0.11719381    -0.08330
C1011       C  0.01734595  0.30903763  0.06791479     0.62050
H1012       H  0.95330765  0.30018127  0.12331840     0.12740
H1013       H  0.08558783  0.32487065  0.20341273     0.12750
C1014       C  0.02547726  0.32394062  0.25784006     0.62280
F1015       F  0.97657778  0.29847404  0.05189219    -0.22880
F1016       F  0.02800371  0.27995475  0.05515049    -0.20210
F1017       F  0.04644689  0.34694503  0.04961554    -0.19890
F1018       F  0.99455536  0.28917867  0.27986389    -0.19940
F1019       F  0.01967125  0.35696126  0.26677854    -0.20270
F1020       F  0.06579694  0.33225876  0.27341569    -0.22940
C1021       C  0.42029496  0.85651638  0.47702627    -0.05780
C1022       C  0.40080559  0.84725578  0.51868056     0.00150
C1023       C  0.41222977  0.82466063  0.54953322    -0.08420
C1024       C  0.44489832  0.81550278  0.53838063    -0.05800
C1025       C  0.46880309  0.83040655  0.49946028     0.00140
C1026       C  0.45471357  0.84899793  0.46717523    -0.08330
C1027       C  0.47655034  0.86113463  0.42299176     0.62050
H1028       H  0.40967440  0.87147864  0.45278121     0.12740
H1029       H  0.45602002  0.80097289  0.56264255     0.12750
C1030       C  0.39360913  0.81266335  0.59547478     0.62280
F1031       F  0.45633175  0.87622340  0.39480748    -0.22880
F1032       F  0.47494025  0.82706217  0.40489731    -0.20210
F1033       F  0.51935955  0.89106775  0.42726044    -0.19890
F1034       F  0.34916568  0.79614251  0.59528310    -0.19940
F1035       F  0.41232879  0.84684077  0.62081213    -0.20270
F1036       F  0.40223238  0.78346237  0.61508081    -0.22940
C1037       C  0.17706279  0.63490181  0.56818572    -0.05780
C1038       C  0.21632859  0.66620517  0.58422630     0.00150
C1039       C  0.24967103  0.65658042  0.59471353    -0.08420
C1040       C  0.24281968  0.61653910  0.58768437    -0.05800
C1041       C  0.20397622  0.58547437  0.57044155     0.00140
C1042       C  0.16996663  0.59473686  0.56132472    -0.08330
C1043       C  0.12669864  0.56334639  0.54303624     0.62050
H1044       H  0.15195618  0.64263638  0.56005012     0.12740
H1045       H  0.26865049  0.60946882  0.59438866     0.12750
C1046       C  0.29364150  0.68917110  0.60978275     0.62280
F1047       F  0.10150343  0.58084606  0.53009326    -0.22880
F1048       F  0.10381670  0.53341718  0.57469919    -0.20210
F1049       F  0.13299502  0.54571767  0.50705202    -0.19890
F1050       F  0.28948075  0.70534531  0.64791893    -0.19940
F1051       F  0.31176373  0.71978997  0.57773106    -0.20270
F1052       F  0.32164000  0.67369051  0.61773050    -0.22940
C1053       C  0.30085641  0.99397181  0.45910530    -0.05780
C1054       C  0.28374985  0.00821389  0.49102539     0.00150
C1055       C  0.30486106  0.05067320  0.49872912    -0.08420
C1056       C  0.33800806  0.07809078  0.46976140    -0.05800
C1057       C  0.35127884  0.06385400  0.43451826     0.00140
C1058       C  0.33464966  0.02108221  0.43093285    -0.08330
C1059       C  0.35289381  0.00409157  0.39798447     0.62050
H1060       H  0.28644471  0.96118815  0.45527789     0.12740
H1061       H  0.35249017  0.11092658  0.47332975     0.12750
C1062       C  0.29207928  0.06672519  0.53702680     0.62280
F1063       F  0.33787640  0.96251506  0.40549645    -0.22880
F1064       F  0.39760339  0.02403822  0.40074678    -0.20210
F1065       F  0.34119522  0.00962263  0.35625538    -0.19890
F1066       F  0.30004136  0.05082050  0.57530784    -0.19940
F1067       F  0.24856491  0.05518870  0.53491370    -0.20270
F1068       F  0.31546844  0.10906035  0.53761022    -0.22940
C1069       C  0.26773377  0.96285952  0.73384256    -0.05780
C1070       C  0.30759861  0.97072626  0.71509080     0.00150
C1071       C  0.34590264  0.00486737  0.72892078    -0.08420
C1072       C  0.34287554  0.03229686  0.75719597    -0.05800
C1073       C  0.30275435  0.02627468  0.77322284     0.00140
C1074       C  0.26468406  0.99031682  0.76222080    -0.08330
C1075       C  0.22116345  0.98160811  0.77998657     0.62050
H1076       H  0.23835239  0.93623569  0.72356563     0.12740
H1077       H  0.37222290  0.05925227  0.76648297     0.12750
C1078       C  0.38962684  0.01214006  0.71340242     0.62280
F1079       F  0.18768818  0.94514601  0.76530046    -0.22880
F1080       F  0.21309955  0.01309710  0.76689405    -0.20210
F1081       F  0.22153627  0.97896991  0.82499800    -0.19890
F1082       F  0.39325268  0.01947259  0.66881380    -0.19940
F1083       F  0.39354351  0.97767676  0.72356635    -0.20270
F1084       F  0.42344200  0.04535195  0.73296563    -0.22940
C1085       C  0.46324211  0.87463615  0.15611731    -0.05780
C1086       C  0.47592666  0.85874047  0.12188150     0.00150
C1087       C  0.44442847  0.83504018  0.09051953    -0.08420
C1088       C  0.40352108  0.83282934  0.09136164    -0.05800
C1089       C  0.39217156  0.85194897  0.12312548     0.00140
C1090       C  0.42144853  0.87113659  0.15751083    -0.08330
C1091       C  0.40869432  0.88848469  0.19473667     0.62050
H1092       H  0.48682189  0.89106387  0.18096702     0.12740
H1093       H  0.38050577  0.81757493  0.06564168     0.12750
C1094       C  0.45341872  0.81222756  0.05578164     0.62280
F1095       F  0.44121341  0.90520144  0.22547002    -0.22880
F1096       F  0.37209077  0.85742145  0.21506405    -0.20210
F1097       F  0.39987372  0.91883404  0.17909678    -0.19890
F1098       F  0.47249040  0.79063055  0.07422506    -0.19940
F1099       F  0.48041549  0.83956052  0.02399388    -0.20270
F1100       F  0.41557293  0.78425990  0.03580859    -0.22940
C1101       C  0.18962038  0.62299275  0.03344867    -0.05780
C1102       C  0.23130308  0.62698617  0.03374501     0.00150
C1103       C  0.26663496  0.66451713  0.01726735    -0.08420
C1104       C  0.25949457  0.69789410  0.00704179    -0.05800
C1105       C  0.21837824  0.69445812  0.01073965     0.00140
C1106       C  0.18233459  0.65554938  0.02081942    -0.08330
C1107       C  0.13564050  0.64675115  0.01923833     0.62050
H1108       H  0.16196149  0.59404159  0.04371697     0.12740
H1109       H  0.28677036  0.72775920  0.99878876     0.12750
C1110       C  0.31197477  0.67081677  0.01094519     0.62280
F1111       F  0.11126281  0.61207584  0.99550058    -0.22880
F1112       F  0.13131845  0.67849234  0.99958582    -0.20210
F1113       F  0.11905073  0.63952482  0.06109193    -0.19890
F1114       F  0.31033596  0.63686735  0.99253083    -0.19940
F1115       F  0.33302708  0.67813645  0.05052780    -0.20270
F1116       F  0.33628069  0.70430946  0.98323319    -0.22940
C1117       C  0.43645861  0.05436440  0.94873014    -0.05780
C1118       C  0.40279579  0.01656295  0.93531577     0.00150
C1119       C  0.40143113  0.00764632  0.89065993    -0.08420
C1120       C  0.42964702  0.03895713  0.86063470    -0.05800
C1121       C  0.45972151  0.07926404  0.87301971     0.00140
C1122       C  0.46639139  0.08474492  0.91889695    -0.08330
C1123       C  0.50682457  0.11810799  0.93901284     0.62050
H1124       H  0.44010011  0.05996972  0.98330408     0.12740
H1125       H  0.42534860  0.03328707  0.82613591     0.12750
C1126       C  0.36929632  0.96563649  0.87437002     0.62280
F1127       F  0.52797191  0.10025703  0.96139486    -0.22880
F1128       F  0.49594786  0.13851564  0.96867154    -0.20210
F1129       F  0.53517090  0.14544817  0.90839009    -0.19890
F1130       F  0.32745718  0.95666109  0.88402907    -0.19940
F1131       F  0.37740804  0.93619574  0.89412193    -0.20270
F1132       F  0.37237478  0.96355452  0.82977241    -0.22940
C1133       C  0.28202554  0.05585796  0.20218285    -0.05780
C1134       C  0.25590378  0.07376639  0.21153422     0.00150
C1135       C  0.22354917  0.06899552  0.18073929    -0.08420
C1136       C  0.22134530  0.04980067  0.14095939    -0.05800
C1137       C  0.24903767  0.03382169  0.13136852     0.00140
C1138       C  0.27895367  0.03576170  0.16357828    -0.08330
C1139       C  0.30686779  0.01515933  0.16111414     0.62050
H1140       H  0.30573089  0.05700675  0.22560547     0.12740
H1141       H  0.19638568  0.04552859  0.11757429     0.12750
C1142       C  0.19038724  0.08242091  0.18969100     0.62280
F1143       F  0.34977021  0.04396635  0.16773664    -0.22880
F1144       F  0.30449294  0.99750088  0.12188169    -0.20210
F1145       F  0.29410976  0.98481112  0.19367880    -0.19890
F1146       F  0.20775021  0.12388674  0.17998883    -0.19940
F1147       F  0.17752754  0.07434526  0.23288940    -0.20270
F1148       F  0.15375915  0.06161712  0.16445882    -0.22940
C1149       C  0.15624334  0.79625220  0.79015519    -0.05780
C1150       C  0.19013493  0.80218896  0.76284790     0.00150
C1151       C  0.23278830  0.81724451  0.78001123    -0.08420
C1152       C  0.24067450  0.83259258  0.82176758    -0.05800
C1153       C  0.20738780  0.83046674  0.84724330     0.00140
C1154       C  0.16421274  0.80859960  0.83319837    -0.08330
C1155       C  0.12712223  0.79830945  0.86349908     0.62050
H1156       H  0.12375235  0.78312708  0.77702663     0.12740
H1157       H  0.27325658  0.84715182  0.83477163     0.12750
C1158       C  0.27042162  0.81841108  0.75533575     0.62280
F1159       F  0.08785918  0.77312141  0.84415038    -0.22880
F1160       F  0.12836709  0.83424069  0.87429133    -0.20210
F1161       F  0.13061653  0.77815919  0.90080112    -0.19890
F1162       F  0.28262446  0.84656896  0.72075487    -0.19940
F1163       F  0.25854940  0.77979750  0.74057293    -0.20270
F1164       F  0.30648933  0.82975657  0.78145280    -0.22940
C1165       C  0.24107273  0.85543450  0.32664535    -0.05780
C1166       C  0.23901872  0.88676091  0.34803053     0.00150
C1167       C  0.22872915  0.91416895  0.32415037    -0.08420
C1168       C  0.22414840  0.91082978  0.27875982    -0.05800
C1169       C  0.22613836  0.87927470  0.25747864     0.00140
C1170       C  0.23283601  0.84972273  0.28227119    -0.08330
C1171       C  0.22960583  0.81098205  0.26365661     0.62050
H1172       H  0.24702646  0.83367508  0.34546805     0.12740
H1173       H  0.21776519  0.93225868  0.25968775     0.12750
C1174       C  0.22069210  0.94558384  0.34612000     0.62280
F1175       F  0.22932715  0.78384825  0.29587111    -0.22880
F1176       F  0.26478205  0.82122252  0.23695904    -0.20210
F1177       F  0.19142806  0.79022569  0.24066885    -0.19890
F1178       F  0.25375939  0.96768091  0.37463209    -0.19940
F1179       F  0.18183538  0.92575521  0.36864847    -0.20270
F1180       F  0.21834259  0.97315805  0.31627101    -0.22940
C1181       C  0.55616813  0.43547559  0.78424988    -0.05780
C1182       C  0.56050658  0.40662539  0.81184881     0.00150
C1183       C  0.60038498  0.41963736  0.83440308    -0.08420
C1184       C  0.63332982  0.46096977  0.82963414    -0.05800
C1185       C  0.62867351  0.48967113  0.80260313     0.00140
C1186       C  0.58978944  0.47672325  0.77895825    -0.08330
C1187       C  0.58359668  0.50685038  0.74936228     0.62050
H1188       H  0.52618078  0.42547105  0.76659138     0.12740
H1189       H  0.66338072  0.47148605  0.84738569     0.12750
C1190       C  0.60832097  0.39066052  0.86437294     0.62280
F1191       F  0.54339432  0.48862020  0.72956313    -0.22880
F1192       F  0.61496666  0.52215292  0.71710002    -0.20210
F1193       F  0.58719994  0.53900965  0.77325725    -0.19890
F1194       F  0.61066715  0.36138944  0.84014056    -0.19940
F1195       F  0.57514032  0.37173013  0.89461721    -0.20270
F1196       F  0.64683731  0.41102602  0.88699767    -0.22940
C1197       C  0.86487235  0.43120108  0.84241337    -0.05780
C1198       C  0.82204307  0.40623370  0.82787528     0.00150
C1199       C  0.79210838  0.42140112  0.82919239    -0.08420
C1200       C  0.80790386  0.46239665  0.84030911    -0.05800
C1201       C  0.85164185  0.48788144  0.84961870     0.00140
C1202       C  0.88042157  0.47219878  0.85237532    -0.08330
C1203       C  0.92772756  0.49944075  0.86380041     0.62050
H1204       H  0.88725052  0.41923658  0.84361776     0.12740
H1205       H  0.78688307  0.47592581  0.83902562     0.12750
C1206       C  0.74447431  0.39609856  0.81798567     0.62280
F1207       F  0.95018699  0.47773059  0.86660239    -0.22880
F1208       F  0.93052616  0.51668063  0.90356981    -0.20210
F1209       F  0.94745370  0.53047514  0.83224980    -0.19890
F1210       F  0.72490720  0.36250725  0.84661655    -0.19940
F1211       F  0.74005459  0.38371127  0.77552177    -0.20270
F1212       F  0.72260264  0.41814615  0.82147004    -0.22940
C1213       C  0.83282558  0.79184397  0.93005294    -0.05780
C1214       C  0.84991480  0.77228543  0.95736253     0.00150
C1215       C  0.85298003  0.77940996  0.00214590    -0.08420
C1216       C  0.83042148  0.79789735  0.01955456    -0.05800
C1217       C  0.80591617  0.81022167  0.99291743     0.00140
C1218       C  0.80968272  0.80999641  0.94691830    -0.08330
C1219       C  0.78666939  0.82533872  0.91554246     0.62050
H1220       H  0.83243648  0.78751422  0.89535544     0.12740
H1221       H  0.83004262  0.80089862  0.05441270     0.12750
C1222       C  0.87852595  0.76595513  0.03123254     0.62280
F1223       F  0.79339760  0.82016191  0.87249568    -0.22880
F1224       F  0.80206769  0.86680862  0.92065875    -0.20210
F1225       F  0.74252099  0.80383321  0.92340642    -0.19890
F1226       F  0.92013010  0.78240879  0.01475274    -0.19940
F1227       F  0.85903220  0.72367217  0.03276115    -0.20270
F1228       F  0.88108485  0.77926992  0.07309767    -0.22940
C1229       C  0.73849003  0.77245152  0.76558778    -0.05780
C1230       C  0.77882542  0.77685097  0.77639258     0.00150
C1231       C  0.81606318  0.80671979  0.75326058    -0.08420
C1232       C  0.81105200  0.82931220  0.71812160    -0.05800
C1233       C  0.76999275  0.82212904  0.70486393     0.00140
C1234       C  0.73300670  0.79276300  0.72875487    -0.08330
C1235       C  0.68676808  0.78094646  0.71769424     0.62050
H1236       H  0.71009211  0.74889859  0.78278570     0.12740
H1237       H  0.83945370  0.85250357  0.70070570     0.12750
C1238       C  0.86150183  0.81475089  0.76363514     0.62280
F1239       F  0.66180311  0.73858953  0.71767539    -0.22880
F1240       F  0.68164893  0.79594588  0.67761326    -0.20210
F1241       F  0.67201647  0.79570121  0.74984201    -0.19890
F1242       F  0.87769510  0.80408900  0.72872311    -0.19940
F1243       F  0.86292353  0.79295606  0.80046780    -0.20270
F1244       F  0.88784825  0.85611229  0.77062505    -0.22940
C1245       C  0.96412376  0.79838344  0.67247457    -0.05780
C1246       C  0.93326860  0.75908588  0.65950634     0.00150
C1247       C  0.94332125  0.74234459  0.62359558    -0.08420
C1248       C  0.98414087  0.76473876  0.60296273    -0.05800
C1249       C  0.01640971  0.80244105  0.61826102     0.00140
C1250       C  0.00581033  0.82018982  0.65308815    -0.08330
C1251       C  0.03860517  0.86107361  0.67137274     0.62050
H1252       H  0.95691390  0.81012081  0.70104425     0.12740
H1253       H  0.99235499  0.75091106  0.57699615     0.12750
C1254       C  0.91439572  0.69817816  0.61154682     0.62280
F1255       F  0.01955866  0.87539022  0.69998043    -0.22880
F1256       F  0.05735049  0.89028036  0.63792864    -0.20210
F1257       F  0.07037213  0.85670748  0.69382735    -0.19890
F1258       F  0.87151233  0.68777108  0.61557039    -0.19940
F1259       F  0.92253339  0.67257868  0.63905647    -0.20270
F1260       F  0.92153318  0.69196933  0.56900500    -0.22940
C1261       C  0.02560738  0.80422161  0.86831851    -0.05780
C1262       C  0.01192904  0.76340916  0.88219276     0.00150
C1263       C  0.02707112  0.75603607  0.92301714    -0.08420
C1264       C  0.05270419  0.78913641  0.94943673    -0.05800
C1265       C  0.06607974  0.82989881  0.93619806     0.00140
C1266       C  0.05235264  0.83773890  0.89475274    -0.08330
C1267       C  0.06563236  0.88071779  0.87693829     0.62050
H1268       H  0.01375850  0.80983231  0.83751856     0.12740
H1269       H  0.06360767  0.78309754  0.98060524     0.12750
C1270       C  0.01590347  0.71315778  0.94005126     0.62280
F1271       F  0.03100240  0.88124738  0.85596700    -0.22880
F1272       F  0.09904979  0.89260177  0.84730340    -0.20210
F1273       F  0.07896443  0.90903853  0.90931847    -0.19890
F1274       F  0.01221899  0.68823769  0.90624032    -0.19940
F1275       F  0.97732301  0.69594483  0.96308819    -0.20270
F1276       F  0.04784774  0.71445312  0.96763204    -0.22940
C1277       C  0.64256418  0.44800255  0.32990485    -0.05780
C1278       C  0.63436452  0.46693869  0.29325636     0.00150
C1279       C  0.60467140  0.44245902  0.26153326    -0.08420
C1280       C  0.57859548  0.40021468  0.27131203    -0.05800
C1281       C  0.58304752  0.38245656  0.31083734     0.00140
C1282       C  0.61696668  0.40590814  0.33949008    -0.08330
C1283       C  0.62377233  0.38712545  0.38154014     0.62050
H1284       H  0.66751764  0.46689239  0.35255117     0.12740
H1285       H  0.55255719  0.38130499  0.24961535     0.12750
C1286       C  0.59951676  0.46118103  0.21876288     0.62280
F1287       F  0.65908922  0.41536634  0.40456408    -0.22880
F1288       F  0.63091508  0.35500026  0.37213978    -0.20210
F1289       F  0.58748034  0.37255096  0.40789534    -0.19890
F1290       F  0.63868315  0.48020465  0.19669745    -0.19940
F1291       F  0.58657883  0.48984657  0.22647092    -0.20270
F1292       F  0.56911719  0.43175741  0.19224970    -0.22940
C1293       C  0.77850104  0.37378501  0.30161966    -0.05780
C1294       C  0.80926880  0.36697595  0.32390849     0.00150
C1295       C  0.82881536  0.38862478  0.36224425    -0.08420
C1296       C  0.82026195  0.41998070  0.37380288    -0.05800
C1297       C  0.79267959  0.42921686  0.34872337     0.00140
C1298       C  0.76917765  0.40418444  0.31394998    -0.08330
C1299       C  0.73535902  0.40960856  0.28793235     0.62050
H1300       H  0.76158273  0.35516095  0.27415262     0.12740
H1301       H  0.83805622  0.43987441  0.40008343     0.12750
C1302       C  0.85901500  0.37965879  0.39055252     0.62280
F1303       F  0.69778657  0.37217090  0.28584748    -0.22880
F1304       F  0.75065660  0.42368219  0.24608737    -0.20210
F1305       F  0.72484103  0.43683859  0.30636734    -0.19890
F1306       F  0.89784908  0.39288462  0.36903614    -0.19940
F1307       F  0.84033119  0.33803377  0.40037994    -0.20270
F1308       F  0.86793075  0.39963426  0.42952079    -0.22940
C1309       C  0.71285698  0.66190719  0.48221485    -0.05780
C1310       C  0.75460599  0.67278517  0.49883765     0.00150
C1311       C  0.76757856  0.69564794  0.53678636    -0.08420
C1312       C  0.74216564  0.71226212  0.55266309    -0.05800
C1313       C  0.70377034  0.70673460  0.53176474     0.00140
C1314       C  0.68729524  0.67851223  0.49777693    -0.08330
C1315       C  0.64441572  0.66776277  0.47613554     0.62050
H1316       H  0.70177820  0.64268906  0.45420257     0.12740
H1317       H  0.75355520  0.73169451  0.58048490     0.12750
C1318       C  0.80795057  0.70193174  0.56014243     0.62280
F1319       F  0.63319217  0.63780109  0.44574197    -0.22880
F1320       F  0.64697353  0.70225112  0.45499200    -0.20210
F1321       F  0.61192347  0.65295974  0.50727347    -0.19890
F1322       F  0.84372555  0.72317855  0.53326575    -0.19940
F1323       F  0.80309950  0.66370577  0.57141825    -0.20270
F1324       F  0.81482918  0.72362554  0.59764986    -0.22940
C1325       C  0.69044245  0.75168041  0.22006304    -0.05780
C1326       C  0.65372649  0.71634268  0.20486735     0.00150
C1327       C  0.64189624  0.67768664  0.22462379    -0.08420
C1328       C  0.66973624  0.67505754  0.25620486    -0.05800
C1329       C  0.71000970  0.70948132  0.26531330     0.00140
C1330       C  0.72056922  0.74842865  0.24751413    -0.08330
C1331       C  0.76622554  0.78443984  0.25056665     0.62050
H1332       H  0.69883798  0.78137741  0.20504427     0.12740
H1333       H  0.66259824  0.64536357  0.27031527     0.12750
C1334       C  0.60187870  0.63952711  0.21010549     0.62280
F1335       F  0.76769942  0.82128074  0.23888649    -0.22880
F1336       F  0.79302494  0.77868206  0.22276450    -0.20210
F1337       F  0.78202495  0.78717434  0.29243377    -0.19890
F1338       F  0.60605273  0.63329339  0.16676301    -0.19940
F1339       F  0.56589494  0.64443713  0.21503368    -0.20270
F1340       F  0.59535965  0.60489558  0.23426293    -0.22940
C1341       C  0.99037279  0.70702342  0.20133498    -0.05780
C1342       C  0.95330462  0.70640371  0.18190117     0.00150
C1343       C  0.95651268  0.71854260  0.13738327    -0.08420
C1344       C  0.99629616  0.73220301  0.11489965    -0.05800
C1345       C  0.03322778  0.73353732  0.13468820     0.00140
C1346       C  0.02964026  0.71944607  0.17856356    -0.08330
C1347       C  0.06715830  0.71810557  0.20164701     0.62050
H1348       H  0.98853862  0.69747533  0.23528154     0.12740
H1349       H  0.99936379  0.74315273  0.08129944     0.12750
C1350       C  0.91866254  0.71766529  0.11351164     0.62280
F1351       F  0.05628647  0.70148566  0.24361638    -0.22880
F1352       F  0.10189336  0.75739268  0.20399260    -0.20210
F1353       F  0.07929149  0.69400281  0.17898857    -0.19890
F1354       F  0.90791627  0.74447648  0.13243188    -0.19940
F1355       F  0.88365505  0.67835745  0.11526256    -0.20270
F1356       F  0.92871844  0.72948697  0.07023234    -0.22940
C1357       C  0.02448382  0.68265821  0.38183820    -0.05780
C1358       C  0.98712430  0.65936063  0.40724492     0.00150
C1359       C  0.99102589  0.65125289  0.45234999    -0.08420
C1360       C  0.03208350  0.67057357  0.47099053    -0.05800
C1361       C  0.06813762  0.69773189  0.44655871     0.00140
C1362       C  0.06539678  0.70270930  0.40114257    -0.08330
C1363       C  0.10519396  0.73100504  0.37403072     0.62050
H1364       H  0.02122070  0.68771927  0.34739951     0.12740
H1365       H  0.03580574  0.66809520  0.50588854     0.12750
C1366       C  0.95266838  0.62488684  0.48204085     0.62280
F1367       F  0.09570375  0.73003942  0.33010242    -0.22880
F1368       F  0.13620476  0.71887742  0.37968483    -0.20210
F1369       F  0.12208759  0.77105717  0.38681392    -0.19890
F1370       F  0.92625422  0.58753387  0.46352605    -0.19940
F1371       F  0.92974113  0.64538028  0.48910264    -0.20270
F1372       F  0.96551485  0.61670566  0.52228922    -0.22940
C1373       C  0.72066306  0.53173888  0.56608212    -0.05780
C1374       C  0.75187008  0.54374707  0.53301314     0.00150
C1375       C  0.79558005  0.55545321  0.54715190    -0.08420
C1376       C  0.80625166  0.56044193  0.59242840    -0.05800
C1377       C  0.77485176  0.54868836  0.62501766     0.00140
C1378       C  0.73061336  0.53015419  0.61087887    -0.08330
C1379       C  0.69215568  0.50538070  0.64106115     0.62050
H1380       H  0.68710624  0.51986217  0.55660118     0.12740
H1381       H  0.83945405  0.57254533  0.60302816     0.12750
C1382       C  0.83120906  0.55910942  0.51713617     0.62280
F1383       F  0.66998918  0.52677531  0.64676474    -0.22880
F1384       F  0.70405753  0.49604312  0.68115242    -0.20210
F1385       F  0.66433799  0.46839687  0.62251549    -0.19890
F1386       F  0.83243480  0.57881966  0.47798597    -0.19940
F1387       F  0.82500641  0.52032122  0.50982799    -0.20270
F1388       F  0.87150667  0.58101989  0.53601671    -0.22940
C1389       C  0.76204425  0.51532067  0.04672723    -0.05780
C1390       C  0.76453002  0.55175629  0.02845190     0.00150
C1391       C  0.77753929  0.58538119  0.05610475    -0.08420
C1392       C  0.78670063  0.58114460  0.10047366    -0.05800
C1393       C  0.78245354  0.54423792  0.11926506     0.00140
C1394       C  0.76974531  0.51072283  0.09172843    -0.08330
C1395       C  0.76381700  0.47016659  0.11032140     0.62050
H1396       H  0.75395458  0.49025514  0.02528616     0.12740
H1397       H  0.79593996  0.60662823  0.12163189     0.12750
C1398       C  0.78243880  0.62601069  0.03878697     0.62280
F1399       F  0.75240128  0.44137346  0.07857334    -0.22880
F1400       F  0.73151758  0.45468776  0.14169169    -0.20210
F1401       F  0.80212538  0.47609304  0.12914182    -0.19890
F1402       F  0.74339894  0.62017554  0.02210845    -0.19940
F1403       F  0.81360824  0.64206644  0.00636974    -0.20270
F1404       F  0.79476110  0.65445515  0.07103095    -0.22940
loop_ 
_geom_bond_atom_site_label_1 
_geom_bond_atom_site_label_2 
_geom_bond_distance 
_geom_bond_site_symmetry_2 
_ccdc_geom_bond_type 
C1           N19   1.338       .  A
C1           C38   1.461       .  S
C1         C1358   1.469       .  S
N2           N19   1.313       .  A
N2           N24   1.322       .  A
N2          Co39   2.040       .  S
C3           N28   1.328       .  A
C3           C41   1.442       .  S
C3           H48   1.082       .  S
H4           C45   1.079       .  S
C5           N29   1.337       .  A
C5            C9   1.454       .  S
C5           H34   1.082       .  S
Co6          N24   2.092       .  S
Co6          N14   1.995       .  S
Co6          N46   2.021       .  S
Co6          N22   2.163       .  S
Co6         Cl50   2.444       .  S
N7           C45   1.370       .  A
N7           N14   1.318       .  A
N7           Co8   2.208       .  S
Co8          N11   2.048       .  S
Co8          N28   2.016       .  S
Co8          N15   2.137       .  S
Co8         Cl50   2.406       .  S
C9           N47   1.346       .  A
C9         C1329   1.461       .  S
N10          N17   1.316       .  A
N10          N40   1.311       .  A
N10         Co43   1.989       .  S
N11          N29   1.316       .  A
N11          N47   1.319       .  A
N12          C41   1.378       .  A
N12          N22   1.343       .  A
H13          C38   1.081       .  S
N14          N35   1.309       .  A
N15          N33   1.329       .  A
N15          N20   1.327       .  A
C16          N20   1.352       .  A
C16          C44   1.455       .  S
C16        C1278   1.477       .  S
N17          C32   1.373       .  A
N17         Co39   2.241       .  S
C18          N46   1.322       .  A
C18          C21   1.437       .  S
C18          H52   1.082       .  S
C21          N42   1.353       .  A
C21        C1297   1.452       .  S
N22          N28   1.307       .  A
N23          C49   1.337       .  A
N23          N25   1.307       .  A
N23         Co39   2.018       .  S
N24          C38   1.341       .  A
N25          N53   1.347       .  A
N25         Co43   2.207       .  S
H26          C49   1.074       .  S
H27          C44   1.082       .  S
N29         Co43   2.067       .  S
N30          N42   1.328       .  A
N30          N46   1.325       .  A
N30         Co39   2.126       .  S
C31          N35   1.329       .  A
C31          C45   1.517       .  S
C31        C1342   1.522       .  S
C32          C51   1.503       .  S
C32          H36   1.077       .  S
N33          C44   1.329       .  A
N33         Co43   2.055       .  S
C37          N53   1.380       .  A
C37          C49   1.444       .  S
C37        C1374   1.542       .  S
Co39        Cl50   2.411       .  S
N40          C51   1.328       .  A
C41        C1393   1.513       .  S
Co43        Cl50   2.438       .  S
C51        C1310   1.515       .  S
C54          N72   1.329       .  A
C54          C91   1.475       .  S
C54        C1230   1.462       .  S
N55          N72   1.311       .  A
N55          N77   1.317       .  A
N55         Co92   2.002       .  S
C56          N81   1.335       .  A
C56          C94   1.445       .  S
C56         H101   1.082       .  S
H57          C98   1.081       .  S
C58          N82   1.368       .  A
C58          C62   1.495       .  S
C58          H87   1.081       .  S
Co59         N77   2.135       .  S
Co59         N67   2.014       .  S
Co59         N99   2.069       .  S
Co59         N75   2.161       .  S
Co59       Cl103   2.489       .  S
N60          C98   1.360       .  A
N60          N67   1.317       .  A
N60         Co61   2.146       .  S
Co61         N64   1.999       .  S
Co61         N81   2.046       .  S
Co61         N68   2.091       .  S
Co61       Cl103   2.409       .  S
C62         N100   1.325       .  A
C62        C1262   1.492   1_655  S
N63          N70   1.319       .  A
N63          N93   1.314       .  A
N63         Co96   2.008       .  S
N64          N82   1.317       .  A
N64         N100   1.309       .  A
N65          C94   1.375       .  A
N65          N75   1.340       .  A
H66          C91   1.081       .  S
N67          N88   1.310       .  A
N68          N86   1.324       .  A
N68          N73   1.323       .  A
C69          N73   1.347       .  A
C69          C97   1.450       .  S
C69        C1201   1.452       .  S
N70          C85   1.362       .  A
N70         Co92   2.179       .  S
C71          N99   1.337       .  A
C71          C74   1.454       .  S
C71         H105   1.082       .  S
C74          N95   1.360       .  A
C74        C1185   1.493       .  S
N75          N81   1.316       .  A
N76         C102   1.324       .  A
N76          N78   1.316       .  A
N76         Co92   2.001       .  S
N77          C91   1.356       .  A
N78         N106   1.351       .  A
N78         Co96   2.225       .  S
H79         C102   1.080       .  S
H80          C97   1.082       .  S
N82         Co96   2.172       .  S
N83          N95   1.334       .  A
N83          N99   1.324       .  A
N83         Co92   2.146       .  S
C84          N88   1.333       .  A
C84          C98   1.481       .  S
C84        C1214   1.477       .  S
C85         C104   1.492       .  S
C85          H89   1.081       .  S
N86          C97   1.331       .  A
N86         Co96   2.065       .  S
C90         N106   1.389       .  A
C90         C102   1.434       .  S
C90        C1377   1.531       .  S
Co92       Cl103   2.413       .  S
N93         C104   1.332       .  A
C94        C1390   1.512   1_556  S
Co96       Cl103   2.484       .  S
C104       C1246   1.489       .  S
C107        N125   1.358   1_556  A
C107        C144   1.463       .  S
C107       C1265   1.497       .  S
N108        N125   1.328       .  A
N108        N130   1.315   1_554  A
N108       Co145   2.094       .  S
C109        N134   1.351       .  A
C109        C147   1.471       .  S
C109        H154   1.081       .  S
H110        C151   1.081       .  S
C111        N135   1.332       .  A
C111        C115   1.454       .  S
C111        H140   1.081       .  S
Co112       N130   2.093       .  S
Co112       N120   2.111       .  S
Co112       N152   2.151   1_556  S
Co112       N128   2.111       .  S
Co112      Cl156   2.471   1_556  S
N113        C151   1.325       .  A
N113        N120   1.320       .  A
N113       Co114   2.024   1_556  S
Co114       N117   2.125       .  S
Co114       N134   2.124   1_554  S
Co114       N121   2.052       .  S
Co114      Cl156   2.438       .  S
C115        N153   1.357   1_554  A
C115       C1105   1.479       .  S
N116        N123   1.316       .  A
N116        N146   1.340       .  A
N116       Co149   2.163       .  S
N117        N135   1.318       .  A
N117        N153   1.328   1_554  A
N118        C147   1.357       .  A
N118        N128   1.332       .  A
H119        C144   1.080       .  S
N120        N141   1.326       .  A
N121        N139   1.322       .  A
N121        N126   1.320       .  A
C122        N126   1.344       .  A
C122        C150   1.480       .  S
C122       C1089   1.494       .  S
N123        C138   1.329       .  A
N123       Co145   2.031       .  S
C124        N152   1.360   1_545  A
C124        C127   1.491       .  S
C124        H158   1.081       .  S
C127        N148   1.332   1_545  A
C127       C1137   1.484       .  S
N128        N134   1.324       .  A
N129        C155   1.348       .  A
N129        N131   1.319       .  A
N129       Co145   2.115       .  S
N130        C144   1.344       .  A
N131        N159   1.309       .  A
N131       Co149   2.024       .  S
H132        C155   1.081       .  S
H133        C150   1.080       .  S
N135       Co149   2.039       .  S
N136        N148   1.315       .  A
N136        N152   1.321       .  A
N136       Co145   2.037       .  S
C137        N141   1.353       .  A
C137        C151   1.435       .  S
C137       C1153   1.452       .  S
C138        C157   1.442       .  S
C138        H142   1.082       .  S
N139        C150   1.356       .  A
N139       Co149   2.154       .  S
C143        N159   1.333       .  A
C143        C155   1.475       .  S
C143       C1169   1.475       .  S
Co145      Cl156   2.436       .  S
N146        C157   1.373       .  A
C147       C1118   1.512   1_565  S
Co149      Cl156   2.466       .  S
C157       C1345   1.508       .  S
C160        N178   1.342       .  A
C160        C197   1.447       .  S
C160       C1361   1.441       .  S
N161        N178   1.314       .  A
N161        N183   1.322       .  A
N161       Co198   2.056       .  S
C162        N187   1.340       .  A
C162        C200   1.473       .  S
C162        H207   1.077       .  S
H163        C204   1.081       .  S
C164        N188   1.338       .  A
C164        C168   1.470       .  S
C164        H193   1.082       .  S
Co165       N183   2.070       .  S
Co165       N173   2.068       .  S
Co165       N205   2.073       .  S
Co165       N181   2.091       .  S
Co165      Cl209   2.430       .  S
N166        C204   1.356       .  A
N166        N173   1.317       .  A
N166       Co167   2.140       .  S
Co167       N170   2.038       .  S
Co167       N187   2.099       .  S
Co167       N174   2.156       .  S
Co167      Cl209   2.462       .  S
C168        N206   1.336       .  A
C168       C1150   1.463       .  S
N169        N176   1.313       .  A
N169        N199   1.326       .  A
N169       Co202   2.080       .  S
N170        N188   1.320       .  A
N170        N206   1.313       .  A
N171        C200   1.350       .  A
N171        N181   1.324       .  A
H172        C197   1.081       .  S
N173        N194   1.325       .  A
N174        N192   1.314       .  A
N174        N179   1.339       .  A
C175        N179   1.372       .  A
C175        C203   1.435       .  S
C175       C1070   1.498       .  S
N176        C191   1.349       .  A
N176       Co198   2.096       .  S
C177        N205   1.337       .  A
C177        C180   1.471       .  S
C177        H211   1.082       .  S
C180        N201   1.341       .  A
C180       C1166   1.472       .  S
N181        N187   1.323       .  A
N182        C208   1.338       .  A
N182        N184   1.314       .  A
N182       Co198   2.075       .  S
N183        C197   1.337       .  A
N184        N212   1.331       .  A
N184       Co202   2.099       .  S
H185        C208   1.077       .  S
H186        C203   1.082       .  S
N188       Co202   2.105       .  S
N189        N201   1.317       .  A
N189        N205   1.316       .  A
N189       Co198   2.061       .  S
C190        N194   1.348       .  A
C190        C204   1.483       .  S
C190       C1038   1.508       .  S
C191        C210   1.474       .  S
C191        H195   1.081       .  S
N192        C203   1.323       .  A
N192       Co202   2.019       .  S
C196        N212   1.356       .  A
C196        C208   1.457       .  S
C196       C1054   1.495   1_565  S
Co198      Cl209   2.462       .  S
N199        C210   1.351       .  A
C200       C1022   1.496       .  S
Co202      Cl209   2.406       .  S
C210       C1249   1.504       .  S
C213        N231   1.353       .  A
C213        C250   1.470       .  S
C213       C1102   1.495       .  S
N214        N231   1.322       .  A
N214        N236   1.317       .  A
N214       Co251   2.066       .  S
C215        N240   1.338       .  A
C215        C253   1.452       .  S
C215        H260   1.081       .  S
H216        C257   1.081       .  S
C217        N241   1.334       .  A
C217        C221   1.453       .  S
C217        H246   1.081       .  S
Co218       N236   2.102       .  S
Co218       N226   2.071       .  S
Co218       N258   2.081       .  S
Co218       N234   2.117       .  S
Co218      Cl262   2.457       .  S
N219        C257   1.339   1_554  A
N219        N226   1.315       .  A
N219       Co220   2.050       .  S
Co220       N223   2.112   1_554  S
Co220       N240   2.081       .  S
Co220       N227   2.046       .  S
Co220      Cl262   2.424       .  S
C221        N259   1.356       .  A
C221        C961   1.478       .  S
N222        N229   1.317   1_556  A
N222        N252   1.319       .  A
N222       Co255   2.066   1_556  S
N223        N241   1.321       .  A
N223        N259   1.329       .  A
N224        C253   1.360       .  A
N224        N234   1.333       .  A
H225        C250   1.075       .  S
N226        N247   1.317       .  A
N227        N245   1.318       .  A
N227        N232   1.314       .  A
C228        N232   1.336       .  A
C228        C256   1.474       .  S
C228        C942   1.469   1_554  S
N229        C244   1.348       .  A
N229       Co251   2.093       .  S
C230        N258   1.345       .  A
C230        C233   1.466       .  S
C230        H264   1.081       .  S
C233        N254   1.343       .  A
C233        C974   1.482       .  S
N234        N240   1.320       .  A
N235        C261   1.314       .  A
N235        N237   1.321       .  A
N235       Co251   2.028       .  S
N236        C250   1.341       .  A
N237        N265   1.334       .  A
N237       Co255   2.121       .  S
H238        C261   1.081       .  S
H239        C256   1.081       .  S
N241       Co255   2.067   1_556  S
N242        N254   1.324       .  A
N242        N258   1.316       .  A
N242       Co251   2.081       .  S
C243        N247   1.345       .  A
C243        C257   1.455   1_554  S
C243        C910   1.453   1_554  S
C244        C263   1.470   1_554  S
C244        H248   1.081       .  S
N245        C256   1.346       .  A
N245       Co255   2.095       .  S
C249        N265   1.364       .  A
C249        C261   1.429       .  S
C249       C1009   1.463       .  S
Co251      Cl262   2.427       .  S
N252        C263   1.344       .  A
C253        C929   1.492       .  S
Co255      Cl262   2.463       .  S
C263        C990   1.479       .  S
C266        N284   1.363       .  A
C266        C303   1.438       .  S
C266        C894   1.469       .  S
N267        N284   1.329       .  A
N267        N289   1.312       .  A
N267       Co304   2.102       .  S
C268        N293   1.349       .  A
C268        C306   1.477       .  S
C268        H313   1.081       .  S
H269        C310   1.081       .  S
C270        N294   1.335       .  A
C270        C274   1.460       .  S
C270        H299   1.081       .  S
Co271       N289   2.024       .  S
Co271       N279   2.107       .  S
Co271       N311   2.141       .  S
Co271       N287   2.045       .  S
Co271      Cl315   2.406       .  S
N272        C310   1.344       .  A
N272        N279   1.320       .  A
N272       Co273   2.069       .  S
Co273       N276   2.117       .  S
Co273       N293   2.124       .  S
Co273       N280   2.074       .  S
Co273      Cl315   2.482       .  S
C274        N312   1.362       .  A
C274        C833   1.510       .  S
N275        N282   1.324       .  A
N275        N305   1.330       .  A
N275       Co308   2.124       .  S
N276        N294   1.316       .  A
N276        N312   1.333       .  A
N277        C306   1.345       .  A
N277        N287   1.321       .  A
H278        C303   1.082       .  S
N279        N300   1.322       .  A
N280        N298   1.324       .  A
N280        N285   1.322       .  A
C281        N285   1.346       .  A
C281        C309   1.465       .  S
C281        C862   1.483       .  S
N282        C297   1.346       .  A
N282       Co304   2.114       .  S
C283        N311   1.355       .  A
C283        C286   1.476       .  S
C283        H317   1.081       .  S
C286        N307   1.344       .  A
C286        C881   1.491       .  S
N287        N293   1.316       .  A
N288        C314   1.349       .  A
N288        N290   1.317       .  A
N288       Co304   2.095       .  S
N289        C303   1.321       .  A
N290        N318   1.320       .  A
N290       Co308   2.065       .  S
H291        C314   1.081       .  S
H292        C309   1.076       .  S
N294       Co308   2.065       .  S
N295        N307   1.322       .  A
N295        N311   1.323       .  A
N295       Co304   2.074       .  S
C296        N300   1.347       .  A
C296        C310   1.463       .  S
C296        C958   1.480       .  S
C297        C316   1.474       .  S
C297        H301   1.077       .  S
N298        C309   1.348       .  A
N298       Co308   2.124       .  S
C302        N318   1.342       .  A
C302        C314   1.464       .  S
C302        C977   1.473       .  S
Co304      Cl315   2.484       .  S
N305        C316   1.358       .  A
C306        C846   1.490       .  S
Co308      Cl315   2.423       .  S
C316       C1041   1.512       .  S
C319        N337   1.342       .  A
C319        C356   1.461       .  S
C319       C1281   1.462       .  S
N320        N337   1.318       .  A
N320        N342   1.322       .  A
N320       Co357   2.069       .  S
C321        N346   1.339       .  A
C321        C359   1.461       .  S
C321        H366   1.080       .  S
H322        C363   1.082       .  S
C323        N347   1.335       .  A
C323        C327   1.449       .  S
C323        H352   1.081       .  S
Co324       N342   2.092       .  S
Co324       N332   2.076       .  S
Co324       N364   2.061       .  S
Co324       N340   2.096       .  S
Co324      Cl368   2.462       .  S
N325        C363   1.344       .  A
N325        N332   1.314       .  A
N325       Co326   2.075       .  S
Co326       N329   2.124       .  S
Co326       N346   2.092       .  S
Co326       N333   2.065       .  S
Co326      Cl368   2.422       .  S
C327        N365   1.359       .  A
C327        C814   1.478       .  S
N328        N335   1.318       .  A
N328        N358   1.322       .  A
N328       Co361   2.057       .  S
N329        N347   1.321       .  A
N329        N365   1.329       .  A
N330        C359   1.355       .  A
N330        N340   1.329       .  A
H331        C356   1.081       .  S
N332        N353   1.322       .  A
N333        N351   1.318       .  A
N333        N338   1.314       .  A
C334        N338   1.341       .  A
C334        C362   1.489       .  S
C334       C1134   1.518       .  S
N335        C350   1.352       .  A
N335       Co357   2.121       .  S
C336        N364   1.338       .  A
C336        C339   1.448       .  S
C336        H370   1.081       .  S
C339        N360   1.361       .  A
C339        C798   1.489       .  S
N340        N346   1.319       .  A
N341        C367   1.331       .  A
N341        N343   1.327       .  A
N341       Co357   2.073       .  S
N342        C356   1.345       .  A
N343        N371   1.332       .  A
N343       Co361   2.130       .  S
H344        C367   1.082       .  S
H345        C362   1.077       .  S
N347       Co361   2.058       .  S
N348        N360   1.334       .  A
N348        N364   1.317       .  A
N348       Co357   2.122       .  S
C349        N353   1.349       .  A
C349        C363   1.461       .  S
C349        C785   1.475       .  S
C350        C369   1.473       .  S
C350        H354   1.081       .  S
N351        C362   1.356       .  A
N351       Co361   2.119       .  S
C355        N371   1.360       .  A
C355        C367   1.452       .  S
C355        C865   1.487       .  S
Co357      Cl368   2.432       .  S
N358        C369   1.343       .  A
C359       C1057   1.487       .  S
Co361      Cl368   2.473       .  S
C369        C926   1.485       .  S
C372        N390   1.362       .  A
C372        C409   1.436       .  S
C372        C945   1.474       .  S
N373        N390   1.333       .  A
N373        N395   1.324       .  A
N373       Co410   2.123       .  S
C374        N399   1.328       .  A
C374        C412   1.439       .  S
C374        H419   1.080       .  S
H375        C416   1.081       .  S
C376        N400   1.331       .  A
C376        C380   1.429       .  S
C376        H405   1.080       .  S
Co377       N395   2.052       .  S
Co377       N385   2.160       .  S
Co377       N417   2.110       .  S
Co377       N393   2.140       .  S
Co377      Cl421   2.426       .  S
N378        C416   1.327       .  A
N378        N385   1.318       .  A
N378       Co379   1.997       .  S
Co379       N382   2.158       .  S
Co379       N399   2.042       .  S
Co379       N386   2.043       .  S
Co379      Cl421   2.426       .  S
C380        N418   1.365       .  A
C380        C766   1.481       .  S
N381        N388   1.313       .  A
N381        N411   1.326       .  A
N381       Co414   2.098       .  S
N382        N400   1.304       .  A
N382        N418   1.323       .  A
N383        C412   1.373       .  A
N383        N393   1.338       .  A
H384        C409   1.081       .  S
N385        N406   1.333       .  A
N386        N404   1.300       .  A
N386        N391   1.313       .  A
C387        N391   1.326       .  A
C387        C415   1.504       .  S
C387       C1121   1.533       .  S
N388        C403   1.350       .  A
N388       Co410   2.074       .  S
C389        N417   1.355       .  A
C389        C392   1.482       .  S
C389        H423   1.081       .  S
C392        N413   1.334       .  A
C392        C849   1.476       .  S
N393        N399   1.310       .  A
N394        C420   1.330       .  A
N394        N396   1.328       .  A
N394       Co410   2.089       .  S
N395        C409   1.322       .  A
N396        N424   1.336       .  A
N396       Co414   2.139       .  S
H397        C420   1.081       .  S
H398        C415   1.057       .  S
N400       Co414   2.017       .  S
N401        N413   1.313       .  A
N401        N417   1.320       .  A
N401       Co410   2.057       .  S
C402        N406   1.360       .  A
C402        C416   1.438       .  S
C402        C817   1.473   1_556  S
C403        C422   1.474       .  S
C403        H407   1.081       .  S
N404        C415   1.377       .  A
N404       Co414   2.213       .  S
C408        N424   1.366       .  A
C408        C420   1.442       .  S
C408        C801   1.486       .  S
Co410      Cl421   2.414       .  S
N411        C422   1.349       .  A
C412       C1073   1.501       .  S
Co414      Cl421   2.424       .  S
C422       C1182   1.506       .  S
C425        N443   1.342       .  A
C425        C462   1.468       .  S
C425       C1326   1.477       .  S
N426        N443   1.313       .  A
N426        N448   1.317       .  A
N426       Co463   2.057       .  S
C427        N452   1.342       .  A
C427        C465   1.465       .  S
C427        H472   1.081       .  S
H428        C469   1.076   1_556  S
C429        N453   1.340       .  A
C429        C433   1.464       .  S
C429        H458   1.080       .  S
Co430       N448   2.092       .  S
Co430       N438   2.068       .  S
Co430       N470   2.046       .  S
Co430       N446   2.113       .  S
Co430      Cl474   2.461       .  S
N431        C469   1.338       .  A
N431        N438   1.318       .  A
N431       Co432   2.083       .  S
Co432       N435   2.020   1_554  S
Co432       N452   2.083       .  S
Co432       N439   2.105       .  S
Co432      Cl474   2.435       .  S
C433        N471   1.332       .  A
C433        C734   1.439       .  S
N434        N441   1.313       .  A
N434        N464   1.322   1_554  A
N434       Co467   2.064       .  S
N435        N453   1.315       .  A
N435        N471   1.311       .  A
N436        C465   1.355       .  A
N436        N446   1.330       .  A
H437        C462   1.081       .  S
N438        N459   1.320       .  A
N439        N457   1.316       .  A
N439        N444   1.328   1_554  A
C440        N444   1.361       .  A
C440        C468   1.443   1_556  S
C440        C718   1.479   1_565  S
N441        C456   1.342       .  A
N441       Co463   2.080       .  S
C442        N470   1.337       .  A
C442        C445   1.459       .  S
C442        H476   1.081       .  S
C445        N466   1.344       .  A
C445        C750   1.460       .  S
N446        N452   1.321       .  A
N447        C473   1.331       .  A
N447        N449   1.311       .  A
N447       Co463   2.054       .  S
N448        C462   1.345       .  A
N449        N477   1.326       .  A
N449       Co467   2.076       .  S
H450        C473   1.081       .  S
H451        C468   1.082       .  S
N453       Co467   2.081   1_556  S
N454        N466   1.316       .  A
N454        N470   1.320       .  A
N454       Co463   2.092       .  S
C455        N459   1.352       .  A
C455        C469   1.457       .  S
C455        C913   1.476       .  S
C456        C475   1.470       .  S
C456        H460   1.082       .  S
N457        C468   1.322       .  A
N457       Co467   2.040       .  S
C461        N477   1.355       .  A
C461        C473   1.450       .  S
C461        C702   1.471       .  S
Co463      Cl474   2.408       .  S
N464        C475   1.346   1_556  A
C465       C1086   1.498       .  S
Co467      Cl474   2.425       .  S
C475       C1217   1.487   1_554  S
C478        N496   1.359       .  A
C478        C515   1.448       .  S
C478       C1233   1.476       .  S
N479        N496   1.330       .  A
N479        N501   1.312       .  A
N479       Co516   2.109       .  S
C480        N505   1.368       .  A
C480        C518   1.497       .  S
C480        H525   1.081       .  S
H481        C522   1.081       .  S
C482        N506   1.336       .  A
C482        C486   1.453       .  S
C482        H511   1.082       .  S
Co483       N501   2.039       .  S
Co483       N491   2.090       .  S
Co483       N523   2.066       .  S
Co483       N499   2.038       .  S
Co483      Cl527   2.441       .  S
N484        C522   1.330       .  A
N484        N491   1.317       .  A
N484       Co485   2.006       .  S
Co485       N488   2.146       .  S
Co485       N505   2.150       .  S
Co485       N492   2.034       .  S
Co485      Cl527   2.448       .  S
C486        N524   1.361       .  A
C486        C830   1.488       .  S
N487        N494   1.321       .  A
N487        N517   1.340       .  A
N487       Co520   2.174       .  S
N488        N506   1.320       .  A
N488        N524   1.332       .  A
N489        C518   1.329       .  A
N489        N499   1.311       .  A
H490        C515   1.081       .  S
N491        N512   1.313       .  A
N492        N510   1.322       .  A
N492        N497   1.311       .  A
C493        N497   1.338       .  A
C493        C521   1.487       .  S
C493       C1025   1.486       .  S
N494        C509   1.332       .  A
N494       Co516   2.053       .  S
C495        N523   1.337       .  A
C495        C498   1.446       .  S
C495        H529   1.074   1_565  S
C498        N519   1.355       .  A
C498        C686   1.480   1_565  S
N499        N505   1.314       .  A
N500        C526   1.334       .  A
N500        N502   1.321       .  A
N500       Co516   2.070       .  S
N501        C515   1.334       .  A
N502        N530   1.319       .  A
N502       Co520   2.054       .  S
H503        C526   1.081       .  S
H504        C521   1.081       .  S
N506       Co520   2.049       .  S
N507        N519   1.329       .  A
N507        N523   1.314       .  A
N507       Co516   2.097       .  S
C508        N512   1.350       .  A
C508        C522   1.438       .  S
C508        C737   1.434       .  S
C509        C528   1.448       .  S
C509        H513   1.081       .  S
N510        C521   1.358       .  A
N510       Co520   2.163       .  S
C514        N530   1.342       .  A
C514        C526   1.452       .  S
C514        C753   1.449       .  S
Co516      Cl527   2.436       .  S
N517        C528   1.373       .  A
C518        C670   1.513   1_565  S
Co520      Cl527   2.456       .  S
C528       C1313   1.514       .  S
C531        N549   1.365       .  A
C531        C568   1.436       .  S
C531       C1006   1.471       .  S
N532        N549   1.331       .  A
N532        N554   1.313       .  A
N532       Co569   2.109       .  S
C533        N558   1.336       .  A
C533        C571   1.467       .  S
C533        H578   1.082       .  S
H534        C575   1.081       .  S
C535        N559   1.332       .  A
C535        C539   1.449       .  S
C535        H564   1.082       .  S
Co536       N554   2.021       .  S
Co536       N544   2.106       .  S
Co536       N576   2.145       .  S
Co536       N552   2.048       .  S
Co536      Cl580   2.414       .  S
N537        C575   1.339       .  A
N537        N544   1.321       .  A
N537       Co538   2.064       .  S
Co538       N541   2.096       .  S
Co538       N558   2.087       .  S
Co538       N545   2.057       .  S
Co538      Cl580   2.462       .  S
C539        N577   1.358       .  A
C539        C782   1.475       .  S
N540        N547   1.321       .  A
N540        N570   1.316       .  A
N540       Co573   2.063       .  S
N541        N559   1.313       .  A
N541        N577   1.330       .  A
N542        C571   1.345       .  A
N542        N552   1.319       .  A
H543        C568   1.082       .  S
N544        N565   1.324       .  A
N545        N563   1.318       .  A
N545        N550   1.318       .  A
C546        N550   1.345       .  A
C546        C574   1.461       .  S
C546        C689   1.472       .  S
N547        C562   1.338       .  A
N547       Co569   2.077       .  S
C548        N576   1.358       .  A
C548        C551   1.482       .  S
C548        H582   1.081       .  S
C551        N572   1.343       .  A
C551        C878   1.496       .  S
N552        N558   1.318       .  A
N553        C579   1.348       .  A
N553        N555   1.317       .  A
N553       Co569   2.099       .  S
N554        C568   1.321       .  A
N555        N583   1.312       .  A
N555       Co573   2.034       .  S
H556        C579   1.081       .  S
H557        C574   1.078       .  S
N559       Co573   2.048       .  S
N560        N572   1.321       .  A
N560        N576   1.323       .  A
N560       Co569   2.069       .  S
C561        N565   1.348       .  A
C561        C575   1.454       .  S
C561        C654   1.467       .  S
C562        C581   1.462       .  S
C562        H566   1.080       .  S
N563        C574   1.343       .  A
N563       Co573   2.091       .  S
C567        N583   1.333       .  A
C567        C579   1.472       .  S
C567        C638   1.472       .  S
Co569      Cl580   2.471       .  S
N570        C581   1.342       .  A
C571        C705   1.482       .  S
Co573      Cl580   2.407       .  S
C581       C1294   1.461       .  S
C584        N602   1.349       .  A
C584        C621   1.468       .  S
C584       C1198   1.486       .  S
N585        N602   1.316       .  A
N585        N607   1.311       .  A
N585       Co622   2.045       .  S
C586        N611   1.333       .  A
C586        C624   1.458       .  S
C586        H631   1.082       .  S
H587        C628   1.080       .  S
C588        N612   1.336       .  A
C588        C592   1.450       .  S
C588        H617   1.081       .  S
Co589       N607   2.075       .  S
Co589       N597   2.097       .  S
Co589       N629   2.093       .  S
Co589       N605   2.119       .  S
Co589      Cl633   2.445       .  S
N590        C628   1.338       .  A
N590        N597   1.312       .  A
N590       Co591   2.030       .  S
Co591       N594   2.109       .  S
Co591       N611   2.060       .  S
Co591       N598   2.056       .  S
Co591      Cl633   2.406       .  S
C592        N630   1.351       .  A
C592        C657   1.469   1_556  S
N593        N600   1.319       .  A
N593        N623   1.327       .  A
N593       Co626   2.092       .  S
N594        N612   1.317       .  A
N594        N630   1.327       .  A
N595        C624   1.366       .  A
N595        N605   1.336       .  A
H596        C621   1.075       .  S
N597        N618   1.314       .  A
N598        N616   1.319       .  A
N598        N603   1.310       .  A
C599        N603   1.333       .  A
C599        C627   1.482       .  S
C599        C721   1.479       .  S
N600        C615   1.341       .  A
N600       Co622   2.088       .  S
C601        N629   1.346       .  A
C601        C604   1.474       .  S
C601        H635   1.081       .  S
C604        N625   1.339       .  A
C604        C641   1.483       .  S
N605        N611   1.311       .  A
N606        C632   1.316       .  A
N606        N608   1.315       .  A
N606       Co622   2.035       .  S
N607        C621   1.339       .  A
N608        N636   1.329       .  A
N608       Co626   2.095       .  S
H609        C632   1.078       .  S
H610        C627   1.081       .  S
N612       Co626   2.041       .  S
N613        N625   1.318       .  A
N613        N629   1.317       .  A
N613       Co622   2.061       .  S
C614        N618   1.356       .  A
C614        C628   1.458       .  S
C614        C769   1.464       .  S
C615        C634   1.459       .  S
C615        H619   1.082       .  S
N616        C627   1.346       .  A
N616       Co626   2.118       .  S
C620        N636   1.360       .  A
C620        C632   1.439       .  S
C620        C897   1.466       .  S
Co622      Cl633   2.394       .  S
N623        C634   1.354       .  A
C624        C673   1.495       .  S
Co626      Cl633   2.486       .  S
C634        C993   1.482       .  S
C637        H644   1.083       .  S
C637        C638   1.393       .  A
C637        C642   1.403       .  A
C638        C639   1.424       .  A
C639        C640   1.401       .  A
C639        C646   1.522       .  S
C640        H645   1.082       .  S
C640        C641   1.397       .  A
C641        C642   1.428       .  A
C642        C643   1.515       .  S
C643        F647   1.384       .  S
C643        F648   1.383       .  S
C643        F649   1.381       .  S
C646        F650   1.383       .  S
C646        F651   1.383       .  S
C646        F652   1.385       .  S
C653        H660   1.084       .  S
C653        C654   1.398       .  A
C653        C658   1.403       .  A
C654        C655   1.416       .  A
C655        C656   1.407       .  A
C655        C662   1.518       .  S
C656        H661   1.083       .  S
C656        C657   1.400       .  A
C657        C658   1.416       .  A
C658        C659   1.516       .  S
C659        F663   1.384       .  S
C659        F664   1.381   1_554  S
C659        F665   1.376   1_554  S
C662        F666   1.384       .  S
C662        F667   1.382       .  S
C662        F668   1.385       .  S
C669        H676   1.082       .  S
C669        C670   1.412       .  A
C669        C674   1.427       .  A
C670        C671   1.439       .  A
C671        C672   1.400       .  A
C671        C678   1.529       .  S
C672        H677   1.084       .  S
C672        C673   1.392       .  A
C673        C674   1.419       .  A
C674        C675   1.512       .  S
C675        F679   1.384       .  S
C675        F680   1.383       .  S
C675        F681   1.383       .  S
C678        F682   1.380       .  S
C678        F683   1.384   1_545  S
C678        F684   1.386       .  S
C685        H692   1.083       .  S
C685        C686   1.401       .  A
C685        C690   1.410       .  A
C686        C687   1.420   1_545  A
C687        C688   1.400   1_565  A
C687        C694   1.511       .  S
C688        H693   1.084       .  S
C688        C689   1.395       .  A
C689        C690   1.422       .  A
C690        C691   1.520       .  S
C691        F695   1.385       .  S
C691        F696   1.381       .  S
C691        F697   1.383       .  S
C694        F698   1.382       .  S
C694        F699   1.371       .  S
C694        F700   1.385       .  S
C701        H708   1.083       .  S
C701        C702   1.404       .  A
C701        C706   1.406   1_565  A
C702        C703   1.417   1_565  A
C703        C704   1.400       .  A
C703        C710   1.521       .  S
C704        H709   1.081       .  S
C704        C705   1.408       .  A
C705        C706   1.413       .  A
C706        C707   1.516       .  S
C707        F711   1.384       .  S
C707        F712   1.383       .  S
C707        F713   1.383       .  S
C710        F714   1.383   1_545  S
C710        F715   1.382       .  S
C710        F716   1.385       .  S
C717        H724   1.081       .  S
C717        C718   1.418   1_565  A
C717        C722   1.403   1_565  A
C718        C719   1.401       .  A
C719        C720   1.400       .  A
C719        C726   1.517       .  S
C720        H725   1.082       .  S
C720        C721   1.420       .  A
C721        C722   1.399       .  A
C722        C723   1.517       .  S
C723        F727   1.384   1_545  S
C723        F728   1.382       .  S
C723        F729   1.384       .  S
C726        F730   1.383   1_556  S
C726        F731   1.383       .  S
C726        F732   1.385       .  S
C733        H740   1.084       .  S
C733        C734   1.402       .  A
C733        C738   1.400       .  A
C734        C735   1.415       .  A
C735        C736   1.381       .  A
C735        C742   1.517       .  S
C736        H741   1.085       .  S
C736        C737   1.390       .  A
C737        C738   1.408       .  A
C738        C739   1.521       .  S
C739        F743   1.384       .  S
C739        F744   1.380       .  S
C739        F745   1.382       .  S
C742        F746   1.374       .  S
C742        F747   1.382       .  S
C742        F748   1.385       .  S
C749        H756   1.082       .  S
C749        C750   1.403       .  A
C749        C754   1.394       .  A
C750        C751   1.414       .  A
C751        C752   1.399       .  A
C751        C758   1.518       .  S
C752        H757   1.085       .  S
C752        C753   1.400       .  A
C753        C754   1.407       .  A
C754        C755   1.519       .  S
C755        F759   1.377       .  S
C755        F760   1.384       .  S
C755        F761   1.381       .  S
C758        F762   1.383       .  S
C758        F763   1.383       .  S
C758        F764   1.384       .  S
C765        H772   1.083       .  S
C765        C766   1.412       .  A
C765        C770   1.414       .  A
C766        C767   1.447       .  A
C767        C768   1.374       .  A
C767        C774   1.547       .  S
C768        H773   1.085       .  S
C768        C769   1.385       .  A
C769        C770   1.409       .  A
C770        C771   1.513       .  S
C771        F775   1.384   1_556  S
C771        F776   1.384       .  S
C771        F777   1.381       .  S
C774        F778   1.384       .  S
C774        F779   1.355       .  S
C774        F780   1.387       .  S
C781        H788   1.083       .  S
C781        C782   1.404       .  A
C781        C786   1.409       .  A
C782        C783   1.417       .  A
C783        C784   1.407       .  A
C783        C790   1.519       .  S
C784        H789   1.083       .  S
C784        C785   1.402       .  A
C785        C786   1.411       .  A
C786        C787   1.515       .  S
C787        F791   1.384       .  S
C787        F792   1.383       .  S
C787        F793   1.383       .  S
C790        F794   1.383       .  S
C790        F795   1.383       .  S
C790        F796   1.384       .  S
C797        H804   1.082       .  S
C797        C798   1.402       .  A
C797        C802   1.412       .  A
C798        C799   1.420       .  A
C799        C800   1.415       .  A
C799        C806   1.517       .  S
C800        H805   1.083       .  S
C800        C801   1.403       .  A
C801        C802   1.421       .  A
C802        C803   1.521       .  S
C803        F807   1.377       .  S
C803        F808   1.382       .  S
C803        F809   1.380       .  S
C806        F810   1.383       .  S
C806        F811   1.383       .  S
C806        F812   1.385       .  S
C813        H820   1.085       .  S
C813        C814   1.396       .  A
C813        C818   1.404       .  A
C814        C815   1.420       .  A
C815        C816   1.405       .  A
C815        C822   1.509       .  S
C816        H821   1.083       .  S
C816        C817   1.394       .  A
C817        C818   1.423       .  A
C818        C819   1.518       .  S
C819        F823   1.384       .  S
C819        F824   1.383   1_554  S
C819        F825   1.383       .  S
C822        F826   1.381       .  S
C822        F827   1.376       .  S
C822        F828   1.384       .  S
C829        H836   1.083       .  S
C829        C830   1.404       .  A
C829        C834   1.417       .  A
C830        C831   1.414       .  A
C831        C832   1.409       .  A
C831        C838   1.519       .  S
C832        H837   1.079       .  S
C832        C833   1.413       .  A
C833        C834   1.424       .  A
C834        C835   1.517       .  S
C835        F839   1.385       .  S
C835        F840   1.383       .  S
C835        F841   1.384       .  S
C838        F842   1.383       .  S
C838        F843   1.381       .  S
C838        F844   1.384       .  S
C845        H852   1.083       .  S
C845        C846   1.408       .  A
C845        C850   1.410       .  A
C846        C847   1.412       .  A
C847        C848   1.410       .  A
C847        C854   1.512       .  S
C848        H853   1.083       .  S
C848        C849   1.407       .  A
C849        C850   1.416       .  A
C850        C851   1.518       .  S
C851        F855   1.384       .  S
C851        F856   1.384       .  S
C851        F857   1.382       .  S
C854        F858   1.382       .  S
C854        F859   1.380       .  S
C854        F860   1.385       .  S
C861        H868   1.084       .  S
C861        C862   1.409       .  A
C861        C866   1.410       .  A
C862        C863   1.415       .  A
C863        C864   1.411       .  A
C863        C870   1.519       .  S
C864        H869   1.084       .  S
C864        C865   1.410       .  A
C865        C866   1.410       .  A
C866        C867   1.515       .  S
C867        F871   1.385       .  S
C867        F872   1.381       .  S
C867        F873   1.383       .  S
C870        F874   1.383       .  S
C870        F875   1.381       .  S
C870        F876   1.380       .  S
C877        H884   1.083       .  S
C877        C878   1.407       .  A
C877        C882   1.412   1_655  A
C878        C879   1.419   1_655  A
C879        C880   1.418       .  A
C879        C886   1.514       .  S
C880        H885   1.083       .  S
C880        C881   1.406       .  A
C881        C882   1.414       .  A
C882        C883   1.515       .  S
C883        F887   1.384   1_455  S
C883        F888   1.383       .  S
C883        F889   1.382       .  S
C886        F890   1.378       .  S
C886        F891   1.382       .  S
C886        F892   1.385       .  S
C893        H900   1.084       .  S
C893        C894   1.412       .  A
C893        C898   1.402       .  A
C894        C895   1.404       .  A
C895        C896   1.404       .  A
C895        C902   1.514       .  S
C896        H901   1.084   1_455  S
C896        C897   1.413   1_455  A
C897        C898   1.403   1_655  A
C898        C899   1.515   1_455  S
C899        F903   1.383   1_655  S
C899        F904   1.383       .  S
C899        F905   1.384       .  S
C902        F906   1.384       .  S
C902        F907   1.383       .  S
C902        F908   1.383       .  S
C909        H916   1.083       .  S
C909        C910   1.395       .  A
C909        C914   1.403       .  A
C910        C911   1.411   1_556  A
C911        C912   1.398       .  A
C911        C918   1.521       .  S
C912        H917   1.083       .  S
C912        C913   1.404       .  A
C913        C914   1.422   1_554  A
C914        C915   1.517       .  S
C915        F919   1.385       .  S
C915        F920   1.382       .  S
C915        F921   1.381       .  S
C918        F922   1.382       .  S
C918        F923   1.383       .  S
C918        F924   1.385       .  S
C925        H932   1.082       .  S
C925        C926   1.403       .  A
C925        C930   1.412       .  A
C926        C927   1.413       .  A
C927        C928   1.413       .  A
C927        C934   1.515       .  S
C928        H933   1.083       .  S
C928        C929   1.407       .  A
C929        C930   1.416       .  A
C930        C931   1.513       .  S
C931        F935   1.384       .  S
C931        F936   1.383       .  S
C931        F937   1.382       .  S
C934        F938   1.384       .  S
C934        F939   1.383       .  S
C934        F940   1.384       .  S
C941        H948   1.084       .  S
C941        C942   1.411       .  A
C941        C946   1.409       .  A
C942        C943   1.406       .  A
C943        C944   1.402       .  A
C943        C950   1.516   1_556  S
C944        H949   1.084       .  S
C944        C945   1.409       .  A
C945        C946   1.407       .  A
C946        C947   1.514       .  S
C947        F951   1.380       .  S
C947        F952   1.383       .  S
C947        F953   1.383       .  S
C950        F954   1.383       .  S
C950        F955   1.384       .  S
C950        F956   1.382       .  S
C957        H964   1.083       .  S
C957        C958   1.406       .  A
C957        C962   1.412       .  A
C958        C959   1.417       .  A
C959        C960   1.403       .  A
C959        C966   1.520       .  S
C960        H965   1.083       .  S
C960        C961   1.402       .  A
C961        C962   1.413       .  A
C962        C963   1.516       .  S
C963        F967   1.384       .  S
C963        F968   1.382       .  S
C963        F969   1.384       .  S
C966        F970   1.384       .  S
C966        F971   1.382       .  S
C966        F972   1.385       .  S
C973        H980   1.081       .  S
C973        C974   1.399       .  A
C973        C978   1.402       .  A
C974        C975   1.420       .  A
C975        C976   1.411       .  A
C975        C982   1.517       .  S
C976        H981   1.083       .  S
C976        C977   1.402       .  A
C977        C978   1.417       .  A
C978        C979   1.518       .  S
C979        F983   1.383       .  S
C979        F984   1.382       .  S
C979        F985   1.382       .  S
C982        F986   1.383       .  S
C982        F987   1.383       .  S
C982        F988   1.384       .  S
C989        H996   1.083   1_556  S
C989        C990   1.405       .  A
C989        C994   1.411   1_455  A
C990        C991   1.415       .  A
C991        C992   1.406       .  A
C991        C998   1.518       .  S
C992        H997   1.082       .  S
C992        C993   1.403   1_455  A
C993        C994   1.416       .  A
C994        C995   1.517       .  S
C995        F999   1.385   1_556  S
C995       F1000   1.382       .  S
C995       F1001   1.383       .  S
C998       F1002   1.382       .  S
C998       F1003   1.383       .  S
C998       F1004   1.382       .  S
C1005      H1012   1.084       .  S
C1005      C1006   1.408       .  A
C1005      C1010   1.407   1_655  A
C1006      C1007   1.415   1_655  A
C1007      C1008   1.403       .  A
C1007      C1014   1.518       .  S
C1008      H1013   1.084       .  S
C1008      C1009   1.405       .  A
C1009      C1010   1.413       .  A
C1010      C1011   1.517       .  S
C1011      F1015   1.384   1_455  S
C1011      F1016   1.383       .  S
C1011      F1017   1.383       .  S
C1014      F1018   1.381   1_455  S
C1014      F1019   1.383       .  S
C1014      F1020   1.385       .  S
C1021      H1028   1.083       .  S
C1021      C1022   1.412       .  A
C1021      C1026   1.416       .  A
C1022      C1023   1.426       .  A
C1023      C1024   1.406       .  A
C1023      C1030   1.523       .  S
C1024      H1029   1.083       .  S
C1024      C1025   1.405       .  A
C1025      C1026   1.409       .  A
C1026      C1027   1.513       .  S
C1027      F1031   1.384       .  S
C1027      F1032   1.383       .  S
C1027      F1033   1.382       .  S
C1030      F1034   1.380       .  S
C1030      F1035   1.382       .  S
C1030      F1036   1.383       .  S
C1037      H1044   1.083       .  S
C1037      C1038   1.406       .  A
C1037      C1042   1.418       .  A
C1038      C1039   1.420       .  A
C1039      C1040   1.418       .  A
C1039      C1046   1.512       .  S
C1040      H1045   1.083       .  S
C1040      C1041   1.408       .  A
C1041      C1042   1.426       .  A
C1042      C1043   1.518       .  S
C1043      F1047   1.385       .  S
C1043      F1048   1.381       .  S
C1043      F1049   1.383       .  S
C1046      F1050   1.381       .  S
C1046      F1051   1.380       .  S
C1046      F1052   1.384       .  S
C1053      H1060   1.083       .  S
C1053      C1054   1.408   1_565  A
C1053      C1058   1.409   1_565  A
C1054      C1055   1.412       .  A
C1055      C1056   1.415       .  A
C1055      C1062   1.511       .  S
C1056      H1061   1.083       .  S
C1056      C1057   1.407       .  A
C1057      C1058   1.415       .  A
C1058      C1059   1.521       .  S
C1059      F1063   1.384   1_545  S
C1059      F1064   1.383       .  S
C1059      F1065   1.381       .  S
C1062      F1066   1.384       .  S
C1062      F1067   1.382       .  S
C1062      F1068   1.381       .  S
C1069      H1076   1.083       .  S
C1069      C1070   1.419       .  A
C1069      C1074   1.415       .  A
C1070      C1071   1.407   1_565  A
C1071      C1072   1.412       .  A
C1071      C1078   1.515       .  S
C1072      H1077   1.079       .  S
C1072      C1073   1.417       .  A
C1073      C1074   1.409   1_545  A
C1074      C1075   1.515       .  S
C1075      F1079   1.384       .  S
C1075      F1080   1.383   1_565  S
C1075      F1081   1.383       .  S
C1078      F1082   1.383       .  S
C1078      F1083   1.384   1_545  S
C1078      F1084   1.385       .  S
C1085      H1092   1.083       .  S
C1085      C1086   1.408       .  A
C1085      C1090   1.420       .  A
C1086      C1087   1.423       .  A
C1087      C1088   1.409       .  A
C1087      C1094   1.520       .  S
C1088      H1093   1.084       .  S
C1088      C1089   1.403       .  A
C1089      C1090   1.415       .  A
C1090      C1091   1.513       .  S
C1091      F1095   1.384       .  S
C1091      F1096   1.383       .  S
C1091      F1097   1.383       .  S
C1094      F1098   1.383       .  S
C1094      F1099   1.381       .  S
C1094      F1100   1.385       .  S
C1101      H1108   1.084       .  S
C1101      C1102   1.407       .  A
C1101      C1106   1.401       .  A
C1102      C1103   1.427       .  A
C1103      C1104   1.411       .  A
C1103      C1110   1.517       .  S
C1104      H1109   1.083   1_554  S
C1104      C1105   1.402       .  A
C1105      C1106   1.414       .  A
C1106      C1107   1.519       .  S
C1107      F1111   1.384   1_554  S
C1107      F1112   1.383   1_554  S
C1107      F1113   1.383       .  S
C1110      F1114   1.383   1_554  S
C1110      F1115   1.382       .  S
C1110      F1116   1.385   1_554  S
C1117      H1124   1.085       .  S
C1117      C1118   1.403       .  A
C1117      C1122   1.423       .  A
C1118      C1119   1.419       .  A
C1119      C1120   1.421       .  A
C1119      C1126   1.518   1_545  S
C1120      H1125   1.083       .  S
C1120      C1121   1.418       .  A
C1121      C1122   1.432       .  A
C1122      C1123   1.507       .  S
C1123      F1127   1.383       .  S
C1123      F1128   1.382       .  S
C1123      F1129   1.374       .  S
C1126      F1130   1.382       .  S
C1126      F1131   1.382       .  S
C1126      F1132   1.385       .  S
C1133      H1140   1.083       .  S
C1133      C1134   1.418       .  A
C1133      C1138   1.403       .  A
C1134      C1135   1.421       .  A
C1135      C1136   1.423       .  A
C1135      C1142   1.516       .  S
C1136      H1141   1.083       .  S
C1136      C1137   1.413       .  A
C1137      C1138   1.416       .  A
C1138      C1139   1.524       .  S
C1139      F1143   1.384       .  S
C1139      F1144   1.378   1_545  S
C1139      F1145   1.384   1_545  S
C1142      F1146   1.380       .  S
C1142      F1147   1.383       .  S
C1142      F1148   1.384       .  S
C1149      H1156   1.084       .  S
C1149      C1150   1.395       .  A
C1149      C1154   1.397       .  A
C1150      C1151   1.429       .  A
C1151      C1152   1.394       .  A
C1151      C1158   1.523       .  S
C1152      H1157   1.084       .  S
C1152      C1153   1.392       .  A
C1153      C1154   1.405       .  A
C1154      C1155   1.501       .  S
C1155      F1159   1.382       .  S
C1155      F1160   1.374       .  S
C1155      F1161   1.384       .  S
C1158      F1162   1.380       .  S
C1158      F1163   1.384       .  S
C1158      F1164   1.385       .  S
C1165      H1172   1.080       .  S
C1165      C1166   1.396       .  A
C1165      C1170   1.393       .  A
C1166      C1167   1.420       .  A
C1167      C1168   1.405       .  A
C1167      C1174   1.518       .  S
C1168      H1173   1.082       .  S
C1168      C1169   1.401       .  A
C1169      C1170   1.428       .  A
C1170      C1171   1.528       .  S
C1171      F1175   1.386       .  S
C1171      F1176   1.382       .  S
C1171      F1177   1.384       .  S
C1174      F1178   1.378       .  S
C1174      F1179   1.382       .  S
C1174      F1180   1.385       .  S
C1181      H1188   1.082       .  S
C1181      C1182   1.411       .  A
C1181      C1186   1.418       .  A
C1182      C1183   1.426       .  A
C1183      C1184   1.411       .  A
C1183      C1190   1.520       .  S
C1184      H1189   1.083       .  S
C1184      C1185   1.402       .  A
C1185      C1186   1.415       .  A
C1186      C1187   1.516       .  S
C1187      F1191   1.384       .  S
C1187      F1192   1.382       .  S
C1187      F1193   1.383       .  S
C1190      F1194   1.382       .  S
C1190      F1195   1.383       .  S
C1190      F1196   1.385       .  S
C1197      H1204   1.082       .  S
C1197      C1198   1.413       .  A
C1197      C1202   1.396       .  A
C1198      C1199   1.426       .  A
C1199      C1200   1.404       .  A
C1199      C1206   1.517       .  S
C1200      H1205   1.084       .  S
C1200      C1201   1.397       .  A
C1201      C1202   1.401       .  A
C1202      C1203   1.518       .  S
C1203      F1207   1.385       .  S
C1203      F1208   1.383       .  S
C1203      F1209   1.383       .  S
C1206      F1210   1.383       .  S
C1206      F1211   1.383       .  S
C1206      F1212   1.385       .  S
C1213      H1220   1.084       .  S
C1213      C1214   1.404       .  A
C1213      C1218   1.407       .  A
C1214      C1215   1.404   1_556  A
C1215      C1216   1.407       .  A
C1215      C1222   1.501       .  S
C1216      H1221   1.082       .  S
C1216      C1217   1.405   1_554  A
C1217      C1218   1.423       .  A
C1218      C1219   1.520       .  S
C1219      F1223   1.385       .  S
C1219      F1224   1.383       .  S
C1219      F1225   1.383       .  S
C1222      F1226   1.384       .  S
C1222      F1227   1.379       .  S
C1222      F1228   1.383       .  S
C1229      H1236   1.086       .  S
C1229      C1230   1.391       .  A
C1229      C1234   1.402       .  A
C1230      C1231   1.420       .  A
C1231      C1232   1.407       .  A
C1231      C1238   1.515       .  S
C1232      H1237   1.084       .  S
C1232      C1233   1.399       .  A
C1233      C1234   1.421       .  A
C1234      C1235   1.508       .  S
C1235      F1239   1.385       .  S
C1235      F1240   1.380       .  S
C1235      F1241   1.375       .  S
C1238      F1242   1.383       .  S
C1238      F1243   1.383       .  S
C1238      F1244   1.383       .  S
C1245      H1252   1.083       .  S
C1245      C1246   1.404       .  A
C1245      C1250   1.417   1_655  A
C1246      C1247   1.420       .  A
C1247      C1248   1.412       .  A
C1247      C1254   1.514       .  S
C1248      H1253   1.083       .  S
C1248      C1249   1.404   1_655  A
C1249      C1250   1.426       .  A
C1250      C1251   1.519       .  S
C1251      F1255   1.385       .  S
C1251      F1256   1.383       .  S
C1251      F1257   1.383       .  S
C1254      F1258   1.376       .  S
C1254      F1259   1.382       .  S
C1254      F1260   1.385       .  S
C1261      H1268   1.084       .  S
C1261      C1262   1.405       .  A
C1261      C1266   1.421       .  A
C1262      C1263   1.426       .  A
C1263      C1264   1.403       .  A
C1263      C1270   1.522       .  S
C1264      H1269   1.084       .  S
C1264      C1265   1.400       .  A
C1265      C1266   1.427       .  A
C1266      C1267   1.516       .  S
C1267      F1271   1.384       .  S
C1267      F1272   1.383       .  S
C1267      F1273   1.382       .  S
C1270      F1274   1.384       .  S
C1270      F1275   1.383   1_455  S
C1270      F1276   1.385       .  S
C1277      H1284   1.083       .  S
C1277      C1278   1.408       .  A
C1277      C1282   1.400       .  A
C1278      C1279   1.410       .  A
C1279      C1280   1.407       .  A
C1279      C1286   1.515       .  S
C1280      H1285   1.084       .  S
C1280      C1281   1.405       .  A
C1281      C1282   1.408       .  A
C1282      C1283   1.518       .  S
C1283      F1287   1.385       .  S
C1283      F1288   1.382       .  S
C1283      F1289   1.384       .  S
C1286      F1290   1.383       .  S
C1286      F1291   1.383       .  S
C1286      F1292   1.384       .  S
C1293      H1300   1.085       .  S
C1293      C1294   1.397       .  A
C1293      C1298   1.394       .  A
C1294      C1295   1.422       .  A
C1295      C1296   1.404       .  A
C1295      C1302   1.520       .  S
C1296      H1301   1.084       .  S
C1296      C1297   1.397       .  A
C1297      C1298   1.414       .  A
C1298      C1299   1.519       .  S
C1299      F1303   1.383       .  S
C1299      F1304   1.383       .  S
C1299      F1305   1.383       .  S
C1302      F1306   1.381       .  S
C1302      F1307   1.382       .  S
C1302      F1308   1.385       .  S
C1309      H1316   1.083       .  S
C1309      C1310   1.419       .  A
C1309      C1314   1.419       .  A
C1310      C1311   1.406       .  A
C1311      C1312   1.418       .  A
C1311      C1318   1.505       .  S
C1312      H1317   1.083       .  S
C1312      C1313   1.418       .  A
C1313      C1314   1.417       .  A
C1314      C1315   1.516       .  S
C1315      F1319   1.385       .  S
C1315      F1320   1.383       .  S
C1315      F1321   1.383       .  S
C1318      F1322   1.383       .  S
C1318      F1323   1.383       .  S
C1318      F1324   1.384       .  S
C1325      H1332   1.083       .  S
C1325      C1326   1.415       .  A
C1325      C1330   1.398       .  A
C1326      C1327   1.406       .  A
C1327      C1328   1.407       .  A
C1327      C1334   1.514       .  S
C1328      H1333   1.084       .  S
C1328      C1329   1.410       .  A
C1329      C1330   1.403       .  A
C1330      C1331   1.519       .  S
C1331      F1335   1.384       .  S
C1331      F1336   1.383       .  S
C1331      F1337   1.382       .  S
C1334      F1338   1.383       .  S
C1334      F1339   1.383       .  S
C1334      F1340   1.384       .  S
C1341      H1348   1.082       .  S
C1341      C1342   1.423       .  A
C1341      C1346   1.417   1_655  A
C1342      C1343   1.413       .  A
C1343      C1344   1.421       .  A
C1343      C1350   1.504       .  S
C1344      H1349   1.083       .  S
C1344      C1345   1.412   1_655  A
C1345      C1346   1.413       .  A
C1346      C1347   1.517       .  S
C1347      F1351   1.384       .  S
C1347      F1352   1.383       .  S
C1347      F1353   1.383       .  S
C1350      F1354   1.381       .  S
C1350      F1355   1.382       .  S
C1350      F1356   1.381       .  S
C1357      H1364   1.082       .  S
C1357      C1358   1.403   1_455  A
C1357      C1362   1.399       .  A
C1358      C1359   1.427       .  A
C1359      C1360   1.393   1_655  A
C1359      C1366   1.518       .  S
C1360      H1365   1.085       .  S
C1360      C1361   1.387       .  A
C1361      C1362   1.409       .  A
C1362      C1363   1.519       .  S
C1363      F1367   1.384       .  S
C1363      F1368   1.383       .  S
C1363      F1369   1.383       .  S
C1366      F1370   1.384       .  S
C1366      F1371   1.384       .  S
C1366      F1372   1.385       .  S
C1373      H1380   1.084       .  S
C1373      C1374   1.403       .  A
C1373      C1378   1.422       .  A
C1374      C1375   1.451       .  A
C1375      C1376   1.431       .  A
C1375      C1382   1.521       .  S
C1376      H1381   1.082       .  S
C1376      C1377   1.397       .  A
C1377      C1378   1.436       .  A
C1378      C1379   1.519       .  S
C1379      F1383   1.382       .  S
C1379      F1384   1.383       .  S
C1379      F1385   1.384       .  S
C1382      F1386   1.376       .  S
C1382      F1387   1.382       .  S
C1382      F1388   1.382       .  S
C1389      H1396   1.083       .  S
C1389      C1390   1.414       .  A
C1389      C1394   1.426       .  A
C1390      C1391   1.420       .  A
C1391      C1392   1.418       .  A
C1391      C1398   1.516       .  S
C1392      H1397   1.083       .  S
C1392      C1393   1.412       .  A
C1393      C1394   1.416       .  A
C1394      C1395   1.513       .  S
C1395      F1399   1.384       .  S
C1395      F1400   1.383       .  S
C1395      F1401   1.383       .  S
C1398      F1402   1.382       .  S
C1398      F1403   1.381       .  S
C1398      F1404   1.384       .  S
