geometry optimzed in LAMMPS
_audit_creation_date              2020-11-30 
_audit_creation_method            'lammps2cif' 
_symmetry_space_group_name_H-M    'P1' 
_symmetry_Int_Tables_number       1 
_symmetry_cell_setting            triclinic 
loop_ 
_symmetry_equiv_pos_as_xyz 
  x,y,z 
_cell_length_a                    58.744119516604776 
_cell_length_b                    59.732329921140014 
_cell_length_c                    48.702538360137595 
_cell_angle_alpha                 94.45783792074471 
_cell_angle_beta                  90.883837322842 
_cell_angle_gamma                 119.76799407437043 
loop_ 
_atom_site_label 
_atom_site_type_symbol 
_atom_site_fract_x 
_atom_site_fract_y 
_atom_site_fract_z 
_atom_site_charge 
O1          O  0.36611057  0.33302416  0.31046454    -0.75170
O2          O  0.40667760  0.36796937  0.30751423    -0.54080
C3          C  0.38229423  0.35356743  0.29945728     0.78560
O4          O  0.37346399  0.33925491  0.44708167    -0.59770
O5          O  0.37062787  0.30010874  0.45044622    -0.52800
C6          C  0.36447513  0.31784368  0.45773170     0.70570
O7          O  0.41321016  0.40140392  0.39492204    -0.74330
O8          O  0.43233482  0.40711825  0.35365147    -0.54890
C9          C  0.42363809  0.41426012  0.37448654     0.76570
O10         O  0.33841780  0.26706734  0.36354382    -0.59470
O11         O  0.35513219  0.25868759  0.40178718    -0.52590
C12         C  0.33726008  0.25281750  0.38251121     0.73170
Zr13       Zr  0.36805866  0.30848024  0.34733980     2.54710
O14         O  0.32767094  0.30979148  0.35339033    -0.80040
O15         O  0.34963082  0.27683363  0.30697602    -0.93460
Zr16       Zr  0.40082321  0.36068920  0.41135112     2.64680
O17         O  0.36369393  0.36822856  0.41017815    -0.98410
O18         O  0.42064911  0.39046222  0.45292333    -0.80470
O19         O  0.39273959  0.35295803  0.36294982    -0.83830
O20         O  0.37444724  0.31629617  0.39606120    -2.18540
O21         O  0.41965832  0.26332830  0.35932423    -0.67220
O22         O  0.40240372  0.25833101  0.40177563    -0.51790
C23         C  0.41042354  0.25070576  0.38036650     0.71550
O24         O  0.49439057  0.38388094  0.37434132    -0.60130
O25         O  0.47713561  0.40520064  0.35499694    -0.52110
C26         C  0.49567260  0.40504286  0.36889522     0.73350
O27         O  0.46854971  0.32630143  0.43486001    -0.71520
O28         O  0.42897915  0.30514328  0.45310676    -0.50200
C29         C  0.45443704  0.31647721  0.45489917     0.74730
O30         O  0.45782280  0.32809803  0.30483944    -0.66850
O31         O  0.45826484  0.36643152  0.30563664    -0.54050
C32         C  0.46470167  0.35004485  0.29547557     0.73120
Zr33       Zr  0.43257608  0.30454117  0.34269952     2.77540
O34         O  0.47290729  0.30242244  0.34192098    -0.97600
O35         O  0.41180163  0.27304286  0.30257630    -0.78420
Zr36       Zr  0.46532061  0.35614062  0.40689951     2.70070
O37         O  0.50953209  0.36552282  0.42017161    -0.79670
O38         O  0.47931101  0.39143526  0.44348915    -0.98750
Zr39       Zr  0.43445705  0.36819203  0.34451008     2.21500
Zr40       Zr  0.39811308  0.29660050  0.41275267     2.11130
O41         O  0.43923984  0.31139665  0.39145156    -2.47440
O42         O  0.45902763  0.34865460  0.35819195    -0.79460
O43         O  0.39181992  0.28922564  0.36320944    -0.71660
O44         O  0.44248717  0.37710266  0.39349929    -2.32620
O45         O  0.40893360  0.32393292  0.32713805    -2.28820
O46         O  0.42456427  0.34147851  0.42796591    -0.73420
H47         H  0.35721973  0.30910927  0.40318926     0.78580
H48         H  0.45301711  0.39541835  0.39922367     0.79670
H49         H  0.44722789  0.30129854  0.39591838     0.81890
H50         H  0.40681986  0.32184473  0.30722881     0.79500
H51         H  0.43536560  0.40628472  0.44652662     0.42530
H52         H  0.46476013  0.38525759  0.45604063     0.41500
H53         H  0.01364825  0.35586678  0.40551098     0.41180
H54         H  0.47420023  0.29586447  0.35958659     0.39110
H55         H  0.39297326  0.26334615  0.30639546     0.42250
H56         H  0.36128974  0.28524732  0.29205506     0.37030
H57         H  0.33346754  0.32848232  0.35656495     0.43150
H58         H  0.34791813  0.35073357  0.40847769     0.39560
H59         H  0.46910830  0.28811296  0.32760635     0.44480
H60         H  0.33300543  0.27631937  0.30176859     0.43200
H61         H  0.36376726  0.37575157  0.42905116     0.43340
H62         H  0.49386882  0.39157482  0.45415536     0.43700
O63         O  0.41570971  0.15169018  0.39738210    -0.75170
O64         O  0.40295650  0.13865431  0.35152271    -0.54080
C65         C  0.40816233  0.15416258  0.37354559     0.78560
O66         O  0.49174153  0.09266875  0.39532365    -0.59770
O67         O  0.47151594  0.06821287  0.43045199    -0.52800
C68         C  0.49168174  0.08134349  0.41671044     0.70570
O69         O  0.46943101  0.12116816  0.32436408    -0.74330
O70         O  0.43154601  0.11945551  0.30918610    -0.54890
C71         C  0.45581716  0.12529844  0.30681296     0.76570
O72         O  0.45452948  0.12953360  0.46045669    -0.59470
O73         O  0.45246191  0.09101710  0.46627351    -0.52590
C74         C  0.46159705  0.11549367  0.47288691     0.73170
Zr75       Zr  0.42688251  0.12338879  0.41938556     2.54710
O76         O  0.46298854  0.16789807  0.42667155    -0.80040
O77         O  0.40257790  0.13135730  0.45517840    -0.93460
Zr78       Zr  0.46328462  0.10056013  0.36623589     2.64680
O79         O  0.50127311  0.14382614  0.37580872    -0.98410
O80         O  0.48666038  0.08511908  0.33664206    -0.80470
O81         O  0.43873274  0.12197078  0.37278835    -0.83830
O82         O  0.45275845  0.10372717  0.41201070    -2.18540
O83         O  0.35544912  0.02490450  0.43985314    -0.67220
O84         O  0.39554297  0.03328762  0.45702126    -0.51790
C85         C  0.37018354  0.02114018  0.45672634     0.71550
O86         O  0.36436822  0.02954145  0.31928804    -0.60130
O87         O  0.38140672  0.06746762  0.30078560    -0.52110
C88         C  0.36853319  0.04247392  0.29845653     0.73350
O89         O  0.40820550  0.00606902  0.37458849    -0.71520
O90         O  0.42709574  0.02066325  0.41826419    -0.50200
C91         C  0.41828764  0.00404380  0.39696461     0.74730
O92         O  0.33678223  0.05357121  0.36385816    -0.66850
O93         O  0.35537896  0.08972839  0.34157297    -0.54050
C94         C  0.33578194  0.07193762  0.35272932     0.73120
Zr95       Zr  0.36248671  0.05596133  0.40521020     2.77540
O96         O  0.31604064  0.02421895  0.40716616    -0.97600
O97         O  0.34894532  0.08109870  0.43540545    -0.78420
Zr98       Zr  0.39824644  0.03386210  0.35141459     2.70070
O99         O  0.36719321  0.48819511  0.33838550    -0.79670
O100        O  0.42063005  0.02751044  0.31246503    -0.98750
Zr101      Zr  0.39941837  0.09646135  0.34392846     2.21500
Zr102      Zr  0.42739988  0.06114308  0.42568989     2.11130
O103        O  0.38732370  0.03494069  0.39791972    -2.47440
O104        O  0.37302321  0.05395607  0.35843635    -0.79460
O105        O  0.40154451  0.08128358  0.43423653    -0.71660
O106        O  0.42461507  0.07551412  0.33725542    -2.32620
O107        O  0.38756146  0.09839777  0.39121395    -2.28820
O108        O  0.43800550  0.05799247  0.37887996    -0.73420
H109        H  0.46953996  0.11361558  0.42218685     0.78580
H110        H  0.42846719  0.07427589  0.31817721     0.79670
H111        H  0.37799117  0.01730223  0.40263609     0.81890
H112        H  0.37683207  0.10646206  0.39280653     0.79500
H113        H  0.47317523  0.07262712  0.32241456     0.42530
H114        H  0.42449524  0.01393843  0.31748086     0.41500
H115        H  0.35336384  0.98362305  0.35173277     0.41180
H116        H  0.31485797  0.00710308  0.40374323     0.39110
H117        H  0.35019449  0.07615395  0.45407210     0.42250
H118        H  0.38992899  0.13464628  0.44509976     0.37030
H119        H  0.47643437  0.16832720  0.41436873     0.43150
H120        H  0.50619274  0.14537124  0.39568248     0.39560
H121        H  0.31208982  0.02541281  0.42674193     0.44480
H122        H  0.41544607  0.14844215  0.46478066     0.43200
H123        H  0.01557727  0.14292533  0.36622068     0.43340
H124        H  0.40677675  0.01884728  0.29728226     0.43700
O125        O  0.00688498  0.40753476  0.14011718    -0.75170
O126        O  0.03216738  0.43505870  0.17727818    -0.54080
C127        C  0.01038195  0.42190902  0.16251077     0.78560
O128        O  0.07091501  0.33846982  0.12598238    -0.59770
O129        O  0.08620613  0.35052881  0.08365897    -0.52800
C130        C  0.07807927  0.33427236  0.10234485     0.70570
O131        O  0.04140209  0.36934139  0.19411686    -0.74330
O132        O  0.05143670  0.41041907  0.20964208    -0.54890
C133        C  0.03928725  0.38579025  0.21099976     0.76570
O134        O  0.02234927  0.37512081  0.06417808    -0.59470
O135        O  0.05564178  0.37047704  0.04666770    -0.52590
C136        C  0.03193058  0.36687722  0.04527165     0.73170
Zr137      Zr  0.03348321  0.39956046  0.10809162     2.54710
O138        O  0.49040494  0.36085689  0.10726405    -0.80040
O139        O  0.01645843  0.42123293  0.08094002    -0.93460
Zr140      Zr  0.06603398  0.37062765  0.15385310     2.64680
O141        O  0.02643023  0.32851705  0.15451780    -0.98410
O142        O  0.08981465  0.36003221  0.18700757    -0.80470
O143        O  0.04436676  0.39474340  0.15295569    -0.83830
O144        O  0.05364037  0.37367967  0.10812754    -2.18540
O145        O  0.11348109  0.46189056  0.05967098    -0.67220
O146        O  0.10904350  0.42270452  0.04388210    -0.51790
C147        C  0.11482125  0.44639326  0.04100516     0.71550
O148        O  0.14650803  0.46343241  0.19226628    -0.60130
O149        O  0.10946360  0.46157118  0.20901629    -0.52110
C150        C  0.13432747  0.46985573  0.21021305     0.73350
O151        O  0.15669589  0.41610738  0.12106328    -0.71520
O152        O  0.13510334  0.39728234  0.07885532    -0.50200
C153        C  0.15455144  0.40472464  0.09677823     0.74730
O154        O  0.10064107  0.49662010  0.13790311    -0.66850
O155        O  0.08158741  0.48050520  0.17763913    -0.54050
C156        C  0.09204368  0.49869587  0.16166439     0.73120
Zr157      Zr  0.10190418  0.46309756  0.10641605     2.77540
O158        O  0.14610899  0.50022607  0.10693237    -0.97600
O159        O  0.08239948  0.48327443  0.08040138    -0.78420
Zr160      Zr  0.13442089  0.43317696  0.15048778     2.70070
O161        O  0.17791381  0.46928993  0.14430140    -0.79670
O162        O  0.15107640  0.41490316  0.18292091    -0.98750
Zr163      Zr  0.07441805  0.43696010  0.17356719     2.21500
Zr164      Zr  0.09238232  0.39492109  0.08283947     2.11130
O165        O  0.12271738  0.43752340  0.10507539    -2.47440
O166        O  0.11415837  0.45890712  0.15093543    -0.79460
O167        O  0.07202169  0.42118179  0.08392767    -0.71660
O168        O  0.09612077  0.41221010  0.17572367    -2.32620
O169        O  0.06233798  0.44189613  0.12863415    -2.29180
O170        O  0.10432112  0.39139024  0.12900834    -0.73420
H171        H  0.04180853  0.35647539  0.09941339     0.78580
H172        H  0.10055476  0.41121013  0.19460506     0.79670
H173        H  0.13836601  0.44560086  0.09491884     0.81890
H174        H  0.05371972  0.45210106  0.12927079     0.79500
H175        H  0.07634116  0.34908883  0.19940017     0.42530
H176        H  0.14446857  0.39685697  0.17487280     0.41500
H177        H  0.17519806  0.48430827  0.14338232     0.41180
H178        H  0.15609364  0.49392340  0.09574032     0.39110
H179        H  0.07347795  0.47107055  0.06374092     0.42250
H180        H  0.03072439  0.43135521  0.06889240     0.37030
H181        H  0.49358986  0.34846901  0.11667699     0.43150
H182        H  0.02044312  0.32222875  0.13489902     0.39560
H183        H  0.14420008  0.01227927  0.09551821     0.44480
H184        H  0.01596483  0.43443011  0.09414226     0.43200
H185        H  0.03259055  0.31696080  0.16086231     0.43340
H186        H  0.17023600  0.42374862  0.18066350     0.43700
O187        O  0.14962414  0.11799307  0.32637361    -0.75170
O188        O  0.18634113  0.11668072  0.31385144    -0.54080
C189        C  0.16810257  0.12262235  0.31014952     0.78560
O190        O  0.17226202  0.13011049  0.46296682    -0.59770
O191        O  0.13566413  0.09162160  0.46930348    -0.52800
C192        C  0.15148829  0.11614593  0.47547329     0.70570
O193        O  0.23024653  0.15480452  0.39901954    -0.74330
O194        O  0.23403392  0.13780256  0.35673903    -0.54890
C195        C  0.24185505  0.15599310  0.37663890     0.76570
O196        O  0.09661709  0.08873111  0.39509311    -0.59470
O197        O  0.09312507  0.06632072  0.43217502    -0.52590
C198        C  0.08564441  0.07831012  0.41691513     0.73170
Zr199      Zr  0.13287485  0.09572426  0.36689021     2.54710
O200        O  0.13126904  0.13577139  0.37131920    -0.80040
O201        O  0.09475827  0.07385351  0.33410163    -0.93460
Zr202      Zr  0.19288137  0.12465700  0.42227835     2.64680
O203        O  0.19713324  0.16751181  0.42561787    -0.98410
O204        O  0.22802660  0.13774412  0.45770870    -0.80470
O205        O  0.17920821  0.11936107  0.37485690    -0.83830
O206        O  0.14690948  0.10230891  0.41371363    -2.18540
O207        O  0.09573416  0.00295534  0.38150918    -0.67220
O208        O  0.09125506  0.01928528  0.42374684    -0.51790
C209        C  0.08360216  0.00166680  0.40343685     0.71550
O210        O  0.22856772  0.06610001  0.38761432    -0.60130
O211        O  0.23344530  0.08811884  0.34999245    -0.52110
C212        C  0.24084000  0.07677269  0.36655702     0.73350
O213        O  0.16979720  0.02896827  0.45033029    -0.71520
O214        O  0.13408434  0.03233458  0.46200398    -0.50200
C215        C  0.14900373  0.02221690  0.46383438     0.74730
O216        O  0.16655794  0.02801587  0.33098725    -0.66850
O217        O  0.18648523  0.06402156  0.30931255    -0.54050
C218        C  0.17524833  0.03918671  0.30912808     0.73120
Zr219      Zr  0.13420390  0.03099409  0.35851342     2.77540
O220        O  0.12246587  0.48572000  0.34899397    -0.97600
O221        O  0.10596795  0.02127943  0.31703029    -0.78420
Zr222      Zr  0.19254620  0.05914780  0.41566321     2.70070
O223        O  0.20204859  0.02385018  0.41524158    -0.79670
O224        O  0.22653786  0.08317696  0.45260153    -0.98750
Zr225      Zr  0.19564409  0.09471535  0.35029780     2.21500
Zr226      Zr  0.13094925  0.06082926  0.43026909     2.11130
O227        O  0.14663029  0.03557368  0.40572889    -2.47440
O228        O  0.18003908  0.05356217  0.36794136    -0.79460
O229        O  0.11680178  0.05446950  0.38256981    -0.71660
O230        O  0.20924140  0.10022103  0.39848152    -2.32620
O231        O  0.14897134  0.07159509  0.34143464    -2.28820
O232        O  0.17723900  0.08407986  0.44080341    -0.73420
H233        H  0.13973672  0.11209432  0.42292130     0.78580
H234        H  0.22817626  0.10948123  0.40105570     0.79670
H235        H  0.13893098  0.01821572  0.41115833     0.81890
H236        H  0.14419695  0.06950157  0.32195549     0.79500
H237        H  0.24319290  0.13953191  0.44749125     0.42530
H238        H  0.21759211  0.07686962  0.46973759     0.41500
H239        H  0.19015916  0.01107728  0.40011162     0.41180
H240        H  0.12218370  0.47946166  0.36730027     0.39110
H241        H  0.08908145  0.01843285  0.32400735     0.42250
H242        H  0.10170857  0.07118437  0.31651106     0.37030
H243        H  0.14872702  0.14894253  0.37991139     0.43150
H244        H  0.17899093  0.16434951  0.42702124     0.39560
H245        H  0.10388587  0.47644759  0.34173364     0.44480
H246        H  0.09003180  0.08725994  0.33095622     0.43200
H247        H  0.20597568  0.17577361  0.44403955     0.43340
H248        H  0.23846937  0.07597001  0.45079029     0.43700
O249        O  0.03617537  0.17642043  0.20832478    -0.75170
O250        O  0.04345516  0.14479334  0.22256275    -0.54080
C251        C  0.03138720  0.15795198  0.22362277     0.78560
O252        O  0.02915934  0.14538469  0.07607074    -0.59770
O253        O  0.06573327  0.18141257  0.06443237    -0.52800
C254        C  0.04202956  0.16223740  0.05949374     0.70570
O255        O  0.00653606  0.10193964  0.14770106    -0.74330
O256        O  0.02643674  0.09971780  0.18702049    -0.54890
C257        C  0.00642781  0.09159561  0.16972889     0.76570
O258        O  0.07107871  0.23234296  0.14201915    -0.59470
O259        O  0.09101263  0.23139240  0.10236365    -0.52590
C260        C  0.08025596  0.24092120  0.11864448     0.73170
Zr261      Zr  0.06676786  0.19908590  0.17250951     2.54710
O262        O  0.03175062  0.20948345  0.17673957    -0.80040
O263        O  0.09191159  0.23472055  0.20797395    -0.93460
Zr264      Zr  0.03537174  0.13547581  0.12101878     2.64680
O265        O  0.49479295  0.13715141  0.12218343    -0.98410
O266        O  0.01512574  0.09533920  0.09053158    -0.80470
O267        O  0.04389865  0.15317594  0.16722147    -0.83830
O268        O  0.05695204  0.18116525  0.12553743    -2.18540
O269        O  0.16256393  0.23408656  0.14361457    -0.67220
O270        O  0.14051435  0.23228889  0.10358046    -0.51790
C271        C  0.16108045  0.24244488  0.12019709     0.71550
O272        O  0.10025017  0.10358317  0.14960891    -0.60130
O273        O  0.07572185  0.10004293  0.18656981    -0.52110
C274        C  0.08874425  0.09262729  0.17080473     0.73350
O275        O  0.12009499  0.14816364  0.07864967    -0.71520
O276        O  0.11635056  0.18208971  0.06537263    -0.50200
C277        C  0.12262465  0.16425367  0.06153060     0.74730
O278        O  0.14232074  0.17729645  0.21035968    -0.66850
O279        O  0.10323490  0.14548162  0.22397568    -0.54050
C280        C  0.12858814  0.15870230  0.22551506     0.73120
Zr281      Zr  0.13428304  0.20014821  0.17390197     2.77540
O282        O  0.17990111  0.21067001  0.18006697    -0.97600
O283        O  0.14462131  0.23553640  0.20923573    -0.78420
Zr284      Zr  0.10290261  0.13657846  0.12253198     2.70070
O285        O  0.14594567  0.13995895  0.12391980    -0.79670
O286        O  0.08201996  0.09619722  0.09242235    -0.98750
Zr287      Zr  0.07018947  0.13839211  0.18833723     2.21500
Zr288      Zr  0.09759044  0.19455397  0.10440276     2.11130
O289        O  0.12588720  0.18236809  0.12687924    -2.47440
O290        O  0.11167623  0.15423991  0.16873967    -0.79460
O291        O  0.10732737  0.21351491  0.15152535    -0.71660
O292        O  0.06154848  0.12069904  0.14147574    -2.32620
O293        O  0.09339782  0.18521436  0.19525251    -2.28820
O294        O  0.07532488  0.14860488  0.09969910    -0.73420
H295        H  0.04632638  0.18673168  0.11609454     0.78580
H296        H  0.05234785  0.10198372  0.13987300     0.79670
H297        H  0.14220201  0.18844418  0.11791425     0.81890
H298        H  0.09626175  0.19102183  0.21472071     0.79500
H299        H  0.02734830  0.08852273  0.09201126     0.42530
H300        H  0.07480970  0.10005774  0.07608801     0.41500
H301        H  0.15586409  0.15296067  0.13974752     0.41180
H302        H  0.18490785  0.20777862  0.16135954     0.39110
H303        H  0.14899570  0.25059233  0.19876978     0.42250
H304        H  0.08124084  0.22974898  0.22429845     0.37030
H305        H  0.01824158  0.19768969  0.16214763     0.43150
H306        H  0.49871613  0.15325178  0.11398264     0.39560
H307        H  0.19005968  0.22968353  0.18475126     0.44480
H308        H  0.09036452  0.24934023  0.20179170     0.43200
H309        H  0.48257977  0.12299738  0.10830035     0.43340
H310        H  0.09679598  0.09424687  0.08560626     0.43700
O311        O  0.32204976  0.46167582  0.18640310    -0.75170
O312        O  0.36054279  0.46346326  0.19919691    -0.54080
C313        C  0.34300777  0.47024125  0.20234755     0.78560
O314        O  0.26908999  0.33666277  0.11992118    -0.59770
O315        O  0.26308463  0.34935349  0.07849281    -0.52800
C316        C  0.25604257  0.33302769  0.09708802     0.70570
O317        O  0.32870883  0.37010587  0.19066752    -0.74330
O318        O  0.36153795  0.41137829  0.20325262    -0.54890
C319        C  0.34789937  0.38732856  0.20709132     0.76570
O320        O  0.26283249  0.41744882  0.11479974    -0.59470
O321        O  0.26180760  0.39614219  0.07314972    -0.52590
C322        C  0.25159136  0.40498143  0.09127894     0.73170
Zr323      Zr  0.30333829  0.43338870  0.14313372     2.54710
O324        O  0.26810036  0.41736625  0.17470739    -0.80040
O325        O  0.30025436  0.47161516  0.13546815    -0.93460
Zr326      Zr  0.30742016  0.36973578  0.14687793     2.64680
O327        O  0.27254523  0.35713292  0.17878696    -0.98410
O328        O  0.30750248  0.32897895  0.14592174    -0.80470
O329        O  0.32020739  0.41165213  0.16824782    -0.83830
O330        O  0.28955911  0.39097118  0.12265376    -2.18540
O331        O  0.33066844  0.45857759  0.06461028    -0.67220
O332        O  0.31314896  0.42179025  0.03686308    -0.51790
C333        C  0.32534736  0.44694644  0.04031275     0.71550
O334        O  0.40353965  0.40673983  0.13092236    -0.60130
O335        O  0.40562251  0.43253817  0.16916055    -0.52110
C336        C  0.41430245  0.42016026  0.15415546     0.73350
O337        O  0.34025984  0.35850954  0.06718774    -0.71520
O338        O  0.31152376  0.36506843  0.04222748    -0.50200
C339        C  0.32559084  0.35402693  0.04537579     0.74730
O340        O  0.40008742  0.49326662  0.12812651    -0.66850
O341        O  0.40392257  0.47782043  0.16825729    -0.54050
C342        C  0.41131342  0.49570302  0.15206910     0.73120
Zr343      Zr  0.36383834  0.46056767  0.09615972     2.77540
O344        O  0.39505108  0.46906962  0.06049997    -0.97600
O345        O  0.37406567  0.50510597  0.09346595    -0.78420
Zr346      Zr  0.36683788  0.39685941  0.09856693     2.70070
O347        O  0.39641888  0.41738938  0.06243809    -0.79670
O348        O  0.38660632  0.36933206  0.09383100    -0.98750
Zr349      Zr  0.36635944  0.43548187  0.16445531     2.21500
Zr350      Zr  0.30209962  0.39303521  0.07560557     2.11130
O351        O  0.34935969  0.41816752  0.07374888    -2.47440
O352        O  0.38206499  0.43936292  0.11934364    -0.79460
O353        O  0.31723610  0.43603702  0.09748432    -0.71660
O354        O  0.35332108  0.39296017  0.14424007    -2.32620
O355        O  0.34944543  0.45805477  0.14120015    -2.28820
O356        O  0.32057881  0.37219160  0.10076898    -0.73420
H357        H  0.27070165  0.38095295  0.12320168     0.78580
H358        H  0.36115275  0.38477168  0.15403718     0.79670
H359        H  0.35406627  0.41884720  0.05479948     0.81890
H360        H  0.35588729  0.47544735  0.14968948     0.79500
H361        H  0.31804425  0.32926148  0.13014293     0.42530
H362        H  0.37295488  0.35215454  0.09876038     0.41500
H363        H  0.41334395  0.42995669  0.07253185     0.41180
H364        H  0.38435108  0.46266793  0.04278289     0.39110
H365        H  0.36129014  0.50693681  0.10508493     0.42250
H366        H  0.31850541  0.48624837  0.13860022     0.37030
H367        H  0.27420119  0.41057431  0.18931314     0.43150
H368        H  0.25866444  0.35883114  0.16899241     0.39560
H369        H  0.40486331  0.48816439  0.06052203     0.44480
H370        H  0.29104027  0.47387213  0.15137380     0.43200
H371        H  0.26511228  0.33821847  0.17911027     0.43340
H372        H  0.38829069  0.36677280  0.07378803     0.43700
C373        C  0.43429717  0.02088198  0.16169174    -0.05350
C374        C  0.45571883  0.02210168  0.17653014    -0.32770
C375        C  0.47901899  0.04584967  0.18260505     0.36480
C376        C  0.48098505  0.06843260  0.17344656    -0.05700
C377        C  0.45833132  0.06745295  0.16200163    -0.32670
C378        C  0.43528141  0.04392967  0.15574720     0.36380
H379        H  0.45490507  0.50450654  0.18207671     0.16750
O380        O  0.00017195  0.04637929  0.19547379    -0.60170
H381        H  0.45905973  0.08488033  0.15596399     0.16770
O382        O  0.41390006  0.04362935  0.14355360    -0.60270
H383        H  0.41803318  0.04663473  0.12404760     0.43760
H384        H  0.99911205  0.05051730  0.21536325     0.43720
C385        C  0.18476888  0.26516846  0.11119301    -0.05350
C386        C  0.20752579  0.26376005  0.10657496    -0.32770
C387        C  0.23021106  0.28510514  0.09826894     0.36480
C388        C  0.23052586  0.30844864  0.09438109    -0.05700
C389        C  0.20728277  0.30938675  0.09764082    -0.32670
C390        C  0.18453904  0.28797073  0.10593294     0.36380
H391        H  0.20785890  0.24618217  0.10984187     0.16750
O392        O  0.25248799  0.28341316  0.09500950    -0.60170
H393        H  0.20734017  0.32739359  0.09587958     0.16770
O394        O  0.16259778  0.28999762  0.11024829    -0.60270
H395        H  0.16453709  0.29676632  0.12990717     0.43760
H396        H  0.26005358  0.28533547  0.11397025     0.43720
C397        C  0.14248151  0.15040677  0.24494207    -0.05350
C398        C  0.16420505  0.16832910  0.26270729    -0.32770
C399        C  0.17510520  0.15977102  0.28277362     0.36480
C400        C  0.16516489  0.13301193  0.28441977    -0.05700
C401        C  0.14488719  0.11539520  0.26533944    -0.32670
C402        C  0.13328742  0.12373956  0.24632359     0.36380
H403        H  0.17166586  0.18890057  0.26219039     0.16750
O404        O  0.19399314  0.17759848  0.30196349    -0.60170
H405        H  0.13635702  0.09475643  0.26674787     0.16770
O406        O  0.11244924  0.10540515  0.22942936    -0.60270
H407        H  0.09709294  0.09893503  0.24100327     0.43760
H408        H  0.21093456  0.18082312  0.29471714     0.43720
C409        C  0.13214761  0.15963572  0.03540344    -0.05350
C410        C  0.11313771  0.14187836  0.01529227    -0.32770
C411        C  0.11906878  0.12702126  0.49628332     0.36480
C412        C  0.14452231  0.13026178  0.49676454    -0.05700
C413        C  0.16408562  0.14947109  0.01557741    -0.32670
C414        C  0.15792738  0.16379677  0.03511489     0.36380
H415        H  0.09301862  0.13787140  0.01584536     0.16750
O416        O  0.09989832  0.10956389  0.47712518    -0.60170
H417        H  0.18393004  0.15265660  0.01579135     0.16770
O418        O  0.17655264  0.18006055  0.05543637    -0.60270
H419        H  0.18372924  0.19766922  0.04936983     0.43760
H420        H  0.08959879  0.09377105  0.48669644     0.43720
C421        C  0.12324025  0.45824833  0.01477459    -0.05350
C422        C  0.15019563  0.47505514  0.01219972    -0.32770
C423        C  0.15895995  0.99551745  0.99522206     0.36480
C424        C  0.14066740  0.00005116  0.48107780    -0.05700
C425        C  0.11374080  0.48231448  0.48247101    -0.32670
C426        C  0.10506071  0.46157041  0.99888596     0.36380
H427        H  0.16451613  0.47362265  0.02511932     0.16750
O428        O  0.18541820  0.01227005  0.49455307    -0.60170
H429        H  0.09924811  0.48484403  0.47121126     0.16770
O430        O  0.07861279  0.44622481  0.00155578    -0.60270
H431        H  0.07305151  0.43083076  0.98809699     0.43760
H432        H  0.19153249  0.00385207  0.98050435     0.43720
C433        C  0.14975838  0.48800319  0.23424652    -0.05350
C434        C  0.14884866  0.47825670  0.25955715    -0.32770
C435        C  0.15950706  0.99495116  0.28375103     0.36480
C436        C  0.17050122  0.02211657  0.28312721    -0.05700
C437        C  0.17297179  0.03189607  0.25729870    -0.32670
C438        C  0.16288030  0.01499184  0.23293160     0.36380
H439        H  0.13902328  0.45749482  0.26070858     0.16750
O440        O  0.15766806  0.48418874  0.30806373    -0.60170
H441        H  0.18138515  0.05251882  0.25606282     0.16770
O442        O  0.16427212  0.02494317  0.20818567    -0.60270
H443        H  0.18030580  0.02631228  0.20023537     0.43760
H444        H  0.17465562  0.48470721  0.31112189     0.43720
C445        C  0.09308163  0.02340652  0.17042149    -0.05350
C446        C  0.07018359  0.02316975  0.17866619    -0.32770
C447        C  0.06872482  0.04597634  0.18073041     0.36480
C448        C  0.09086055  0.06962882  0.17598467    -0.05700
C449        C  0.11459551  0.07012781  0.17071975    -0.32670
C450        C  0.11574475  0.04724242  0.16771047     0.36380
H451        H  0.05284734  0.50497447  0.18148313     0.16750
O452        O  0.04503065  0.04449412  0.18477103    -0.60170
H453        H  0.13196148  0.08819765  0.16723758     0.16770
O454        O  0.13877407  0.04821777  0.16094935    -0.60270
H455        H  0.14956772  0.05343578  0.17859717     0.43760
H456        H  0.03630082  0.04068227  0.16603316     0.43720
C457        C  0.07649210  0.30851264  0.09830391    -0.05350
C458        C  0.05490356  0.28749828  0.10883959    -0.32770
C459        C  0.05572815  0.26535809  0.11492747     0.36480
C460        C  0.07815024  0.26328868  0.10983473    -0.05700
C461        C  0.09878983  0.28314899  0.09676734    -0.32670
C462        C  0.09820769  0.30575610  0.09128010     0.36380
H463        H  0.03785056  0.28901621  0.11422389     0.16750
O464        O  0.03445058  0.24583106  0.12596892    -0.60170
H465        H  0.11604492  0.28178638  0.09216461     0.16770
O466        O  0.11989694  0.32586911  0.08154446    -0.60270
H467        H  0.11671032  0.32312292  0.06119342     0.43760
H468        H  0.03577862  0.25189042  0.14578508     0.43720
C469        C  0.17612707  0.39943521  0.09029179    -0.05350
C470        C  0.19231344  0.41023225  0.06842704    -0.32770
C471        C  0.21641451  0.41043011  0.06676058     0.36480
C472        C  0.22417128  0.39936427  0.08685086    -0.05700
C473        C  0.20688110  0.38682139  0.10722367    -0.32670
C474        C  0.18318440  0.38681815  0.10906647     0.36380
H475        H  0.18726644  0.42017681  0.05392269     0.16750
O476        O  0.23296552  0.42302812  0.04673303    -0.60170
H477        H  0.21258358  0.37833498  0.12293970     0.16770
O478        O  0.16786948  0.37601778  0.13059920    -0.60270
H479        H  0.15646781  0.35742331  0.12409114     0.43760
H480        H  0.24392114  0.44124631  0.05482310     0.43720
C481        C  0.48757498  0.42426917  0.16978045    -0.05350
C482        C  0.46429109  0.40178419  0.17477169    -0.32770
C483        C  0.44001677  0.40059441  0.17133843     0.36480
C484        C  0.43908063  0.42225227  0.16343203    -0.05700
C485        C  0.46237135  0.44524926  0.16039595    -0.32670
C486        C  0.48664143  0.44632874  0.16323144     0.36380
H487        H  0.46478831  0.38448745  0.17905637     0.16750
O488        O  0.41730112  0.37792297  0.17449509    -0.60170
H489        H  0.46160742  0.46173553  0.15358581     0.16770
O490        O  0.50883210  0.46752280  0.15567494    -0.60270
H491        H  0.50942404  0.48284354  0.16589810     0.43760
H492        H  0.41276295  0.36767780  0.15622042     0.43720
C493        C  0.48373436  0.12922375  0.49424513    -0.05350
C494        C  0.48737676  0.15147101  0.01043731    -0.32770
C495        C  0.00879493  0.16503639  0.02997546     0.36480
C496        C  0.02750593  0.15704843  0.03284915    -0.05700
C497        C  0.02483099  0.13598780  0.01543017    -0.32670
C498        C  0.50309343  0.12191280  0.49662472     0.36380
H499        H  0.47303963  0.15775186  0.00870052     0.16750
O500        O  0.01001299  0.18460075  0.04778790    -0.60170
H501        H  0.03855203  0.12903078  0.01805097     0.16770
O502        O  0.50112272  0.10107637  0.48057233    -0.60270
H503        H  0.99336851  0.08647004  0.49226663     0.43760
H504        H  0.52250295  0.20083742  0.03997373     0.43720
C505        C  0.00948323  0.15011845  0.24278689    -0.05350
C506        C  0.00514360  0.16853467  0.25816577    -0.32770
C507        C  0.48559598  0.16081987  0.27763708     0.36480
C508        C  0.46932327  0.13433386  0.28112346    -0.05700
C509        C  0.47262751  0.11608162  0.26450477    -0.32670
C510        C  0.49241888  0.12364754  0.24579236     0.36380
H511        H  0.01783220  0.18898325  0.25619311     0.16750
O512        O  0.48392256  0.17933900  0.29451929    -0.60170
H513        H  0.46093479  0.09568297  0.26748221     0.16770
O514        O  0.49545191  0.10487084  0.23115247    -0.60270
H515        H  0.47878391  0.09421208  0.21974731     0.43760
H516        H  0.96987586  0.18136520  0.28553697     0.43720
C517        C  0.35747962  0.00166670  0.47741228    -0.05350
C518        C  0.33452888  0.47729083  0.47062798    -0.32770
C519        C  0.32371159  0.45866095  0.49018644     0.36480
C520        C  0.33549642  0.46439683  0.01722300    -0.05700
C521        C  0.35810708  0.48891161  0.02358312    -0.32670
C522        C  0.36910921  0.00706796  0.00430083     0.36380
H523        H  0.32522427  0.47249581  0.45000032     0.16750
O524        O  0.30162379  0.43523945  0.48269628    -0.60170
H525        H  0.36785764  0.49420857  0.04386497     0.16770
O526        O  0.39088446  0.03063215  0.01243206    -0.60270
H527        H  0.40591679  0.02743785  0.01197624     0.43760
H528        H  0.28670741  0.43782597  0.48758057     0.43720
C529        C  0.35931696  0.02703318  0.27117255    -0.05350
C530        C  0.33608103  0.50274345  0.26916634    -0.32770
C531        C  0.33021482  0.48436907  0.24650364     0.36480
C532        C  0.34777828  0.48994712  0.22544145    -0.05700
C533        C  0.37053444  0.01449064  0.22682130    -0.32670
C534        C  0.37621094  0.03309488  0.24929297     0.36380
H535        H  0.32304695  0.49748524  0.28596238     0.16750
O536        O  0.30798102  0.46050794  0.24586144    -0.60170
H537        H  0.38422133  0.01904332  0.21066517     0.16770
O538        O  0.39950258  0.05611561  0.25087670    -0.60270
H539        H  0.39544563  0.06814264  0.24182586     0.43760
H540        H  0.31351344  0.44953552  0.25496772     0.43720
C541        C  0.06313432  0.08115482  0.42453931    -0.05350
C542        C  0.06328516  0.10366457  0.41815631    -0.32770
C543        C  0.04040284  0.10499748  0.41836765     0.36480
C544        C  0.01685873  0.08349628  0.42498429    -0.05700
C545        C  0.01762279  0.06275377  0.43577122    -0.32670
C546        C  0.04079537  0.06139780  0.43550614     0.36380
H547        H  0.08090135  0.11978853  0.41142662     0.16750
O548        O  0.04100004  0.12705267  0.41116341    -0.60170
H549        H  0.49993225  0.04680563  0.44247340     0.16770
O550        O  0.04120490  0.04045636  0.44477833    -0.60270
H551        H  0.02693521  0.02493068  0.43390326     0.43760
H552        H  0.04343123  0.12717298  0.39104859     0.43720
C553        C  0.31133785  0.07290998  0.35440892    -0.05350
C554        C  0.29888052  0.06692380  0.37910593    -0.32770
C555        C  0.27643888  0.06851033  0.38331293     0.36480
C556        C  0.26536458  0.07590388  0.36220876    -0.05700
C557        C  0.27812253  0.08237290  0.33739527    -0.32670
C558        C  0.30122366  0.08121881  0.33355305     0.36380
H559        H  0.30706673  0.06168286  0.39585651     0.16750
O560        O  0.26628283  0.06382992  0.40879169    -0.60170
H561        H  0.27021898  0.08826806  0.32098283     0.16770
O562        O  0.31322476  0.08743472  0.30917020    -0.60270
H563        H  0.32455300  0.10656294  0.31139255     0.43760
H564        H  0.25676903  0.04470363  0.40885133     0.43720
C565        C  0.46968986  0.32387992  0.48160797    -0.05350
C566        C  0.47392699  0.34714465  0.49533755    -0.32770
C567        C  0.99565828  0.36206101  0.01374784     0.36480
C568        C  0.01298768  0.35304993  0.02088357    -0.05700
C569        C  0.00856789  0.32932388  0.00765729    -0.32670
C570        C  0.48741669  0.31509057  0.48760254     0.36380
H571        H  0.46154961  0.35504260  0.48989902     0.16750
O572        O  0.00003516  0.38591063  0.02447665    -0.60170
H573        H  0.02132886  0.32182283  0.01288359     0.16770
O574        O  0.48472806  0.29313194  0.47331476    -0.60270
H575        H  0.47186242  0.27862297  0.48326774     0.43760
H576        H  0.01299818  0.39844379  0.01268754     0.43720
C577        C  0.02007617  0.37574314  0.23228962    -0.05350
C578        C  0.50554214  0.38807896  0.23860083    -0.32770
C579        C  0.48650148  0.37906716  0.25790605     0.36480
C580        C  0.48212262  0.35765575  0.27214066    -0.05700
C581        C  0.49612330  0.34476002  0.26514680    -0.32670
C582        C  0.01475944  0.35347022  0.24513395     0.36380
H583        H  0.00861975  0.40464059  0.22812187     0.16750
O584        O  0.47251768  0.39161713  0.26278808    -0.60170
H585        H  0.49313782  0.32825999  0.27565347     0.16770
O586        O  0.02850740  0.34084261  0.23926981    -0.60270
H587        H  0.01698851  0.32607031  0.22556216     0.43760
H588        H  0.45679728  0.38241382  0.24971008     0.43720
C589        C  0.42414718  0.43844767  0.37591853    -0.05350
C590        C  0.44620294  0.46049086  0.38879128    -0.32770
C591        C  0.44411902  0.48184484  0.39880977     0.36480
C592        C  0.41972363  0.48065677  0.39620358    -0.05700
C593        C  0.39757418  0.45811045  0.38418973    -0.32670
C594        C  0.39982547  0.43729907  0.37347150     0.36380
H595        H  0.46463869  0.46074518  0.39189499     0.16750
O596        O  0.46606681  0.00406252  0.40974259    -0.60170
H597        H  0.37877879  0.45728552  0.38169913     0.16770
O598        O  0.37786572  0.41527568  0.36198955    -0.60270
H599        H  0.37868030  0.41641796  0.34178582     0.43760
H600        H  0.46783468  0.50134194  0.42931145     0.43720
C601        C  0.40955173  0.22570157  0.37898658    -0.05350
C602        C  0.38842595  0.20425640  0.38911722    -0.32770
C603        C  0.38674118  0.18002378  0.38572616     0.36480
C604        C  0.40625410  0.17727014  0.37203793    -0.05700
C605        C  0.42723971  0.19851697  0.36194528    -0.32670
C606        C  0.42910211  0.22268056  0.36539263     0.36380
H607        H  0.37320067  0.20624328  0.39938419     0.16750
O608        O  0.36649040  0.15932577  0.39655032    -0.60170
H609        H  0.44287451  0.19662264  0.35249671     0.16770
O610        O  0.45087302  0.24353956  0.35672705    -0.60270
H611        H  0.44841125  0.24147544  0.33630684     0.43760
H612        H  0.35305295  0.15004692  0.38102786     0.43720
C613        C  0.01795040  0.42990156  0.38057953    -0.05350
C614        C  0.01597961  0.45239497  0.38031057    -0.32770
C615        C  0.03638601  0.47631890  0.39173441     0.36480
C616        C  0.05897129  0.47779260  0.40374488    -0.05700
C617        C  0.06043397  0.45529296  0.40557504    -0.32670
C618        C  0.04030488  0.43145726  0.39376209     0.36380
H619        H  0.99892928  0.45168324  0.37049321     0.16750
O620        O  0.03565925  0.99854271  0.38805198    -0.60170
H621        H  0.07836964  0.45661219  0.41380414     0.16770
O622        O  0.04344626  0.41021470  0.39395590    -0.60270
H623        H  0.05199120  0.40975688  0.37667814     0.43760
H624        H  0.01891392  0.99593945  0.39529088     0.43720
C625        C  0.26616122  0.18037616  0.37473109    -0.05350
C626        C  0.26568532  0.20350387  0.38033847    -0.32770
C627        C  0.28896639  0.22719432  0.38352479     0.36480
C628        C  0.31312250  0.22788844  0.38157091    -0.05700
C629        C  0.31375159  0.20484553  0.37580006    -0.32670
C630        C  0.29029713  0.18104496  0.37211024     0.36380
H631        H  0.24717465  0.20309645  0.38279779     0.16750
O632        O  0.28799211  0.24960587  0.38874268    -0.60170
H633        H  0.33235893  0.20537964  0.37380497     0.16770
O634        O  0.29119235  0.15854614  0.36763113    -0.60270
H635        H  0.29062749  0.15524767  0.34729137     0.43760
H636        H  0.29008888  0.25329876  0.40911835     0.43720
C637        C  0.32723574  0.33613917  0.02279340    -0.05350
C638        C  0.34180411  0.32365196  0.02835625    -0.32770
C639        C  0.35142581  0.31386658  0.00704753     0.36480
C640        C  0.34585894  0.31548136  0.47941645    -0.05700
C641        C  0.32805190  0.32432408  0.47388936    -0.32670
C642        C  0.31901234  0.33477503  0.49510760     0.36380
H643        H  0.34788043  0.32346981  0.04940110     0.16750
O644        O  0.36841709  0.30530662  0.01356471    -0.60170
H645        H  0.32344396  0.32583240  0.45271257     0.16770
O646        O  0.30459906  0.34606872  0.48818817    -0.60270
H647        H  0.28599904  0.33212571  0.48808607     0.43760
H648        H  0.38600734  0.32111049  0.01625696     0.43720
C649        C  0.37256016  0.36160211  0.27594274    -0.05350
C650        C  0.39017150  0.38441564  0.26451814    -0.32770
C651        C  0.38228335  0.39295657  0.24245980     0.36480
C652        C  0.35604949  0.37889721  0.23130601    -0.05700
C653        C  0.33831999  0.35598476  0.24247637    -0.32670
C654        C  0.34634076  0.34726492  0.26457643     0.36380
H655        H  0.41046667  0.39582620  0.27246803     0.16750
O656        O  0.40072044  0.41489752  0.23164565    -0.60170
H657        H  0.31816130  0.34475108  0.23405737     0.16770
O658        O  0.32828103  0.32486640  0.27491131    -0.60270
H659        H  0.32909219  0.31073874  0.26365472     0.43760
H660        H  0.40965652  0.40890368  0.21836524     0.43720
O661        O  0.36611057  0.33302415  0.81046453    -0.75170
O662        O  0.40667761  0.36796937  0.80751424    -0.54080
C663        C  0.38229423  0.35356743  0.79945728     0.78560
O664        O  0.37346398  0.33925490  0.94708167    -0.59770
O665        O  0.37062787  0.30010873  0.95044622    -0.52800
C666        C  0.36447512  0.31784368  0.95773170     0.70570
O667        O  0.41321015  0.40140391  0.89492204    -0.74330
O668        O  0.43233482  0.40711825  0.85365148    -0.54890
C669        C  0.42363808  0.41426012  0.87448655     0.76570
O670        O  0.33841780  0.26706734  0.86354382    -0.59470
O671        O  0.35513218  0.25868759  0.90178717    -0.52590
C672        C  0.33726008  0.25281750  0.88251121     0.73170
Zr673      Zr  0.36805866  0.30848024  0.84733980     2.54710
O674        O  0.32767094  0.30979148  0.85339033    -0.80040
O675        O  0.34963082  0.27683363  0.80697602    -0.93460
Zr676      Zr  0.40082320  0.36068920  0.91135112     2.64680
O677        O  0.36369392  0.36822855  0.91017815    -0.98410
O678        O  0.42064910  0.39046221  0.95292333    -0.80470
O679        O  0.39273958  0.35295802  0.86294983    -0.83830
O680        O  0.37444723  0.31629617  0.89606120    -2.18540
O681        O  0.41965834  0.26332830  0.85932424    -0.67220
O682        O  0.40240371  0.25833101  0.90177563    -0.51790
C683        C  0.41042356  0.25070576  0.88036651     0.71550
O684        O  0.49439057  0.38388095  0.87434133    -0.60130
O685        O  0.47713560  0.40520064  0.85499695    -0.52110
C686        C  0.49567259  0.40504287  0.86889523     0.73350
O687        O  0.46854970  0.32630143  0.93486001    -0.71520
O688        O  0.42897915  0.30514327  0.95310677    -0.50200
C689        C  0.45443703  0.31647720  0.95489917     0.74730
O690        O  0.45782280  0.32809804  0.80483945    -0.66850
O691        O  0.45826485  0.36643153  0.80563665    -0.54050
C692        C  0.46470168  0.35004486  0.79547558     0.73120
Zr693      Zr  0.43257608  0.30454117  0.84269952     2.77540
O694        O  0.47290729  0.30242245  0.84192096    -0.97600
O695        O  0.41180161  0.27304285  0.80257630    -0.78420
Zr696      Zr  0.46532060  0.35614061  0.90689951     2.70070
O697        O  0.50953208  0.36552282  0.92017162    -0.79670
O698        O  0.47931101  0.39143526  0.94348916    -0.98750
Zr699      Zr  0.43445704  0.36819202  0.84451008     2.21500
Zr700      Zr  0.39811307  0.29660050  0.91275267     2.11130
O701        O  0.43923984  0.31139664  0.89145157    -2.47440
O702        O  0.45902763  0.34865460  0.85819195    -0.79460
O703        O  0.39181992  0.28922564  0.86320944    -0.71660
O704        O  0.44248716  0.37710265  0.89349930    -2.32620
O705        O  0.40893360  0.32393292  0.82713805    -2.28820
O706        O  0.42456426  0.34147850  0.92796591    -0.73420
H707        H  0.35721972  0.30910927  0.90318926     0.78580
H708        H  0.45301710  0.39541835  0.89922368     0.79670
H709        H  0.44722788  0.30129854  0.89591839     0.81890
H710        H  0.40681986  0.32184473  0.80722881     0.79500
H711        H  0.43536559  0.40628472  0.94652663     0.42530
H712        H  0.46476013  0.38525759  0.95604064     0.41500
H713        H  0.01364824  0.35586678  0.90551098     0.41180
H714        H  0.47420026  0.29586451  0.85958659     0.39110
H715        H  0.39297325  0.26334613  0.80639549     0.42250
H716        H  0.36128974  0.28524731  0.79205506     0.37030
H717        H  0.33346754  0.32848232  0.85656495     0.43150
H718        H  0.34791812  0.35073356  0.90847769     0.39560
H719        H  0.46910829  0.28811294  0.82760636     0.44480
H720        H  0.33300543  0.27631938  0.80176859     0.43200
H721        H  0.36376726  0.37575156  0.92905117     0.43340
H722        H  0.49386882  0.39157481  0.95415537     0.43700
O723        O  0.41570973  0.15169019  0.89738208    -0.75170
O724        O  0.40295650  0.13865431  0.85152270    -0.54080
C725        C  0.40816234  0.15416259  0.87354557     0.78560
O726        O  0.49174153  0.09266876  0.89532365    -0.59770
O727        O  0.47151594  0.06821287  0.93045199    -0.52800
C728        C  0.49168174  0.08134350  0.91671044     0.70570
O729        O  0.46943101  0.12116816  0.82436408    -0.74330
O730        O  0.43154601  0.11945551  0.80918610    -0.54890
C731        C  0.45581716  0.12529844  0.80681296     0.76570
O732        O  0.45452948  0.12953361  0.96045668    -0.59470
O733        O  0.45246191  0.09101711  0.96627351    -0.52590
C734        C  0.46159705  0.11549368  0.97288691     0.73170
Zr735      Zr  0.42688251  0.12338880  0.91938556     2.54710
O736        O  0.46298853  0.16789807  0.92667157    -0.80040
O737        O  0.40257788  0.13135730  0.95517838    -0.93460
Zr738      Zr  0.46328462  0.10056014  0.86623589     2.64680
O739        O  0.50127311  0.14382614  0.87580872    -0.98410
O740        O  0.48666038  0.08511908  0.83664206    -0.80470
O741        O  0.43873274  0.12197078  0.87278835    -0.83830
O742        O  0.45275845  0.10372718  0.91201070    -2.18540
O743        O  0.35544913  0.02490450  0.93985314    -0.67220
O744        O  0.39554297  0.03328762  0.95702126    -0.51790
C745        C  0.37018354  0.02114019  0.95672634     0.71550
O746        O  0.36436823  0.02954145  0.81928804    -0.60130
O747        O  0.38140672  0.06746761  0.80078559    -0.52110
C748        C  0.36853320  0.04247392  0.79845652     0.73350
O749        O  0.40820550  0.00606903  0.87458849    -0.71520
O750        O  0.42709574  0.02066325  0.91826420    -0.50200
C751        C  0.41828764  0.00404381  0.89696461     0.74730
O752        O  0.33678223  0.05357121  0.86385815    -0.66850
O753        O  0.35537896  0.08972839  0.84157296    -0.54050
C754        C  0.33578194  0.07193762  0.85272932     0.73120
Zr755      Zr  0.36248671  0.05596133  0.90521020     2.77540
O756        O  0.31604064  0.02421894  0.90716616    -0.97600
O757        O  0.34894532  0.08109870  0.93540544    -0.78420
Zr758      Zr  0.39824644  0.03386210  0.85141459     2.70070
O759        O  0.36719321  0.48819511  0.83838550    -0.79670
O760        O  0.42063005  0.02751044  0.81246503    -0.98750
Zr761      Zr  0.39941837  0.09646135  0.84392845     2.21500
Zr762      Zr  0.42739988  0.06114308  0.92568989     2.11130
O763        O  0.38732370  0.03494069  0.89791972    -2.47440
O764        O  0.37302321  0.05395607  0.85843635    -0.79460
O765        O  0.40154451  0.08128359  0.93423653    -0.71660
O766        O  0.42461507  0.07551412  0.83725542    -2.32620
O767        O  0.38756146  0.09839777  0.89121395    -2.28820
O768        O  0.43800550  0.05799248  0.87887996    -0.73420
H769        H  0.46953996  0.11361559  0.92218685     0.78580
H770        H  0.42846719  0.07427589  0.81817721     0.79670
H771        H  0.37799117  0.01730223  0.90263609     0.81890
H772        H  0.37683207  0.10646206  0.89280653     0.79500
H773        H  0.47317523  0.07262713  0.82241456     0.42530
H774        H  0.42449525  0.01393844  0.81748087     0.41500
H775        H  0.35336385  0.98362305  0.85173277     0.41180
H776        H  0.31485798  0.00710307  0.90374323     0.39110
H777        H  0.35019448  0.07615395  0.95407209     0.42250
H778        H  0.38992899  0.13464630  0.94509974     0.37030
H779        H  0.47643437  0.16832721  0.91436875     0.43150
H780        H  0.50619274  0.14537124  0.89568248     0.39560
H781        H  0.31208982  0.02541280  0.92674192     0.44480
H782        H  0.41544605  0.14844214  0.96478066     0.43200
H783        H  0.01557727  0.14292533  0.86622068     0.43340
H784        H  0.40677675  0.01884727  0.79728226     0.43700
O785        O  0.00688498  0.40753472  0.64011719    -0.75170
O786        O  0.03216738  0.43505870  0.67727818    -0.54080
C787        C  0.01038194  0.42190900  0.66251078     0.78560
O788        O  0.07091501  0.33846982  0.62598238    -0.59770
O789        O  0.08620613  0.35052882  0.58365897    -0.52800
C790        C  0.07807927  0.33427236  0.60234485     0.70570
O791        O  0.04140209  0.36934140  0.69411686    -0.74330
O792        O  0.05143671  0.41041908  0.70964208    -0.54890
C793        C  0.03928725  0.38579026  0.71099976     0.76570
O794        O  0.02234928  0.37512081  0.56417808    -0.59470
O795        O  0.05564178  0.37047705  0.54666770    -0.52590
C796        C  0.03193059  0.36687722  0.54527165     0.73170
Zr797      Zr  0.03348321  0.39956047  0.60809162     2.54710
O798        O  0.49040493  0.36085691  0.60726400    -0.80040
O799        O  0.01645845  0.42123296  0.58094003    -0.93460
Zr800      Zr  0.06603398  0.37062765  0.65385311     2.64680
O801        O  0.02643023  0.32851705  0.65451781    -0.98410
O802        O  0.08981465  0.36003222  0.68700757    -0.80470
O803        O  0.04436676  0.39474340  0.65295569    -0.83830
O804        O  0.05364038  0.37367967  0.60812754    -2.18540
O805        O  0.11348109  0.46189056  0.55967098    -0.67220
O806        O  0.10904351  0.42270452  0.54388210    -0.51790
C807        C  0.11482126  0.44639326  0.54100516     0.71550
O808        O  0.14650803  0.46343241  0.69226628    -0.60130
O809        O  0.10946360  0.46157119  0.70901629    -0.52110
C810        C  0.13432748  0.46985573  0.71021305     0.73350
O811        O  0.15669589  0.41610738  0.62106328    -0.71520
O812        O  0.13510335  0.39728234  0.57885533    -0.50200
C813        C  0.15455145  0.40472464  0.59677824     0.74730
O814        O  0.10064109  0.49662011  0.63790312    -0.66850
O815        O  0.08158741  0.48050520  0.67763913    -0.54050
C816        C  0.09204369  0.49869588  0.66166439     0.73120
Zr817      Zr  0.10190419  0.46309757  0.60641605     2.77540
O818        O  0.14610899  0.50022607  0.60693236    -0.97600
O819        O  0.08239950  0.48327445  0.58040138    -0.78420
Zr820      Zr  0.13442089  0.43317696  0.65048779     2.70070
O821        O  0.17791381  0.46928993  0.64430140    -0.79670
O822        O  0.15107640  0.41490316  0.68292091    -0.98750
Zr823      Zr  0.07441805  0.43696011  0.67356719     2.21500
Zr824      Zr  0.09238232  0.39492109  0.58283947     2.11130
O825        O  0.12271738  0.43752340  0.60507539    -2.47440
O826        O  0.11415837  0.45890712  0.65093543    -0.79460
O827        O  0.07202170  0.42118179  0.58392767    -0.71660
O828        O  0.09612077  0.41221010  0.67572368    -2.32620
O829        O  0.06233799  0.44189614  0.62863415    -2.29180
O830        O  0.10432112  0.39139025  0.62900834    -0.73420
H831        H  0.04180853  0.35647540  0.59941339     0.78580
H832        H  0.10055476  0.41121013  0.69460506     0.79670
H833        H  0.13836602  0.44560086  0.59491885     0.81890
H834        H  0.05371972  0.45210107  0.62927079     0.79500
H835        H  0.07634120  0.34908895  0.69940025     0.42530
H836        H  0.14446857  0.39685698  0.67487280     0.41500
H837        H  0.17519807  0.48430827  0.64338233     0.41180
H838        H  0.15609365  0.49392340  0.59574032     0.39110
H839        H  0.07347800  0.47107059  0.56374090     0.42250
H840        H  0.03072445  0.43135530  0.56889248     0.37030
H841        H  0.49358984  0.34846901  0.61667694     0.43150
H842        H  0.02044312  0.32222875  0.63489903     0.39560
H843        H  0.14420008  0.01227927  0.59551821     0.44480
H844        H  0.01596479  0.43443009  0.59414230     0.43200
H845        H  0.03259056  0.31696081  0.66086232     0.43340
H846        H  0.17023600  0.42374862  0.68066350     0.43700
O847        O  0.14962414  0.11799307  0.82637361    -0.75170
O848        O  0.18634113  0.11668072  0.81385145    -0.54080
C849        C  0.16810257  0.12262235  0.81014952     0.78560
O850        O  0.17226202  0.13011049  0.96296682    -0.59770
O851        O  0.13566412  0.09162160  0.96930348    -0.52800
C852        C  0.15148828  0.11614593  0.97547329     0.70570
O853        O  0.23024653  0.15480452  0.89901954    -0.74330
O854        O  0.23403392  0.13780256  0.85673903    -0.54890
C855        C  0.24185505  0.15599310  0.87663890     0.76570
O856        O  0.09661709  0.08873111  0.89509311    -0.59470
O857        O  0.09312507  0.06632072  0.93217502    -0.52590
C858        C  0.08564441  0.07831012  0.91691513     0.73170
Zr859      Zr  0.13287485  0.09572426  0.86689021     2.54710
O860        O  0.13126903  0.13577139  0.87131920    -0.80040
O861        O  0.09475827  0.07385350  0.83410163    -0.93460
Zr862      Zr  0.19288136  0.12465700  0.92227835     2.64680
O863        O  0.19713324  0.16751181  0.92561787    -0.98410
O864        O  0.22802660  0.13774412  0.95770870    -0.80470
O865        O  0.17920821  0.11936107  0.87485690    -0.83830
O866        O  0.14690948  0.10230891  0.91371363    -2.18540
O867        O  0.09573416  0.00295534  0.88150919    -0.67220
O868        O  0.09125506  0.01928528  0.92374685    -0.51790
C869        C  0.08360216  0.00166680  0.90343686     0.71550
O870        O  0.22856771  0.06610000  0.88761432    -0.60130
O871        O  0.23344530  0.08811884  0.84999246    -0.52110
C872        C  0.24084000  0.07677269  0.86655702     0.73350
O873        O  0.16979720  0.02896827  0.95033029    -0.71520
O874        O  0.13408434  0.03233458  0.96200398    -0.50200
C875        C  0.14900373  0.02221690  0.96383439     0.74730
O876        O  0.16655794  0.02801587  0.83098725    -0.66850
O877        O  0.18648523  0.06402156  0.80931256    -0.54050
C878        C  0.17524833  0.03918671  0.80912808     0.73120
Zr879      Zr  0.13420390  0.03099409  0.85851342     2.77540
O880        O  0.12246587  0.48572000  0.84899397    -0.97600
O881        O  0.10596795  0.02127943  0.81703029    -0.78420
Zr882      Zr  0.19254620  0.05914780  0.91566321     2.70070
O883        O  0.20204860  0.02385018  0.91524159    -0.79670
O884        O  0.22653786  0.08317697  0.95260153    -0.98750
Zr885      Zr  0.19564409  0.09471535  0.85029780     2.21500
Zr886      Zr  0.13094925  0.06082926  0.93026909     2.11130
O887        O  0.14663029  0.03557368  0.90572889    -2.47440
O888        O  0.18003908  0.05356217  0.86794136    -0.79460
O889        O  0.11680178  0.05446950  0.88256981    -0.71660
O890        O  0.20924140  0.10022104  0.89848153    -2.32620
O891        O  0.14897134  0.07159509  0.84143464    -2.28820
O892        O  0.17723900  0.08407986  0.94080341    -0.73420
H893        H  0.13973671  0.11209432  0.92292130     0.78580
H894        H  0.22817626  0.10948123  0.90105571     0.79670
H895        H  0.13893098  0.01821572  0.91115833     0.81890
H896        H  0.14419695  0.06950157  0.82195549     0.79500
H897        H  0.24319291  0.13953192  0.94749125     0.42530
H898        H  0.21759212  0.07686960  0.96973759     0.41500
H899        H  0.19015917  0.01107729  0.90011163     0.41180
H900        H  0.12218370  0.47946166  0.86730028     0.39110
H901        H  0.08908145  0.01843284  0.82400735     0.42250
H902        H  0.10170857  0.07118437  0.81651106     0.37030
H903        H  0.14872702  0.14894253  0.87991140     0.43150
H904        H  0.17899093  0.16434951  0.92702124     0.39560
H905        H  0.10388587  0.47644759  0.84173364     0.44480
H906        H  0.09003180  0.08725994  0.83095623     0.43200
H907        H  0.20597568  0.17577361  0.94403956     0.43340
H908        H  0.23846940  0.07597004  0.95079027     0.43700
O909        O  0.03617537  0.17642044  0.70832479    -0.75170
O910        O  0.04345516  0.14479334  0.72256275    -0.54080
C911        C  0.03138720  0.15795198  0.72362277     0.78560
O912        O  0.02915934  0.14538469  0.57607074    -0.59770
O913        O  0.06573327  0.18141256  0.56443237    -0.52800
C914        C  0.04202956  0.16223740  0.55949374     0.70570
O915        O  0.00653607  0.10193964  0.64770106    -0.74330
O916        O  0.02643674  0.09971780  0.68702049    -0.54890
C917        C  0.00642781  0.09159560  0.66972889     0.76570
O918        O  0.07107871  0.23234296  0.64201915    -0.59470
O919        O  0.09101263  0.23139240  0.60236365    -0.52590
C920        C  0.08025597  0.24092120  0.61864448     0.73170
Zr921      Zr  0.06676786  0.19908590  0.67250952     2.54710
O922        O  0.03175062  0.20948345  0.67673957    -0.80040
O923        O  0.09191160  0.23472055  0.70797395    -0.93460
Zr924      Zr  0.03537174  0.13547581  0.62101879     2.64680
O925        O  0.49479295  0.13715141  0.62218343    -0.98410
O926        O  0.01512574  0.09533920  0.59053159    -0.80470
O927        O  0.04389866  0.15317594  0.66722147    -0.83830
O928        O  0.05695204  0.18116525  0.62553743    -2.18540
O929        O  0.16256394  0.23408656  0.64361457    -0.67220
O930        O  0.14051435  0.23228889  0.60358046    -0.51790
C931        C  0.16108045  0.24244488  0.62019709     0.71550
O932        O  0.10025018  0.10358317  0.64960891    -0.60130
O933        O  0.07572187  0.10004294  0.68656981    -0.52110
C934        C  0.08874427  0.09262730  0.67080473     0.73350
O935        O  0.12009499  0.14816364  0.57864967    -0.71520
O936        O  0.11635057  0.18208971  0.56537263    -0.50200
C937        C  0.12262466  0.16425367  0.56153060     0.74730
O938        O  0.14232075  0.17729645  0.71035968    -0.66850
O939        O  0.10323490  0.14548163  0.72397569    -0.54050
C940        C  0.12858814  0.15870230  0.72551506     0.73120
Zr941      Zr  0.13428304  0.20014821  0.67390197     2.77540
O942        O  0.17990112  0.21067001  0.68006696    -0.97600
O943        O  0.14462132  0.23553640  0.70923573    -0.78420
Zr944      Zr  0.10290261  0.13657846  0.62253198     2.70070
O945        O  0.14594566  0.13995894  0.62391978    -0.79670
O946        O  0.08201994  0.09619722  0.59242235    -0.98750
Zr947      Zr  0.07018947  0.13839211  0.68833723     2.21500
Zr948      Zr  0.09759044  0.19455397  0.60440276     2.11130
O949        O  0.12588720  0.18236809  0.62687924    -2.47440
O950        O  0.11167623  0.15423991  0.66873967    -0.79460
O951        O  0.10732737  0.21351491  0.65152535    -0.71660
O952        O  0.06154848  0.12069904  0.64147574    -2.32620
O953        O  0.09339783  0.18521436  0.69525251    -2.28820
O954        O  0.07532488  0.14860488  0.59969910    -0.73420
H955        H  0.04632638  0.18673168  0.61609454     0.78580
H956        H  0.05234785  0.10198372  0.63987300     0.79670
H957        H  0.14220201  0.18844418  0.61791425     0.81890
H958        H  0.09626175  0.19102183  0.71472071     0.79500
H959        H  0.02734828  0.08852271  0.59201129     0.42530
H960        H  0.07480969  0.10005774  0.57608801     0.41500
H961        H  0.15586409  0.15296067  0.63974750     0.41180
H962        H  0.18490785  0.20777861  0.66135954     0.39110
H963        H  0.14899571  0.25059233  0.69876978     0.42250
H964        H  0.08124084  0.22974898  0.72429845     0.37030
H965        H  0.01824159  0.19768969  0.66214763     0.43150
H966        H  0.49871613  0.15325178  0.61398264     0.39560
H967        H  0.19005969  0.22968353  0.68475126     0.44480
H968        H  0.09036452  0.24934024  0.70179170     0.43200
H969        H  0.48257977  0.12299738  0.60830036     0.43340
H970        H  0.09679596  0.09424686  0.58560626     0.43700
O971        O  0.32204978  0.46167582  0.68640310    -0.75170
O972        O  0.36054280  0.46346325  0.69919691    -0.54080
C973        C  0.34300778  0.47024125  0.70234755     0.78560
O974        O  0.26908999  0.33666277  0.61992117    -0.59770
O975        O  0.26308463  0.34935349  0.57849281    -0.52800
C976        C  0.25604258  0.33302769  0.59708802     0.70570
O977        O  0.32870883  0.37010587  0.69066751    -0.74330
O978        O  0.36153796  0.41137828  0.70325261    -0.54890
C979        C  0.34789937  0.38732855  0.70709132     0.76570
O980        O  0.26283250  0.41744883  0.61479974    -0.59470
O981        O  0.26180760  0.39614219  0.57314972    -0.52590
C982        C  0.25159137  0.40498143  0.59127894     0.73170
Zr983      Zr  0.30333830  0.43338870  0.64313372     2.54710
O984        O  0.26810037  0.41736625  0.67470740    -0.80040
O985        O  0.30025438  0.47161516  0.63546816    -0.93460
Zr986      Zr  0.30742016  0.36973578  0.64687792     2.64680
O987        O  0.27254524  0.35713292  0.67878696    -0.98410
O988        O  0.30750248  0.32897895  0.64592173    -0.80470
O989        O  0.32020740  0.41165213  0.66824781    -0.83830
O990        O  0.28955911  0.39097118  0.62265376    -2.18540
O991        O  0.33066844  0.45857759  0.56461028    -0.67220
O992        O  0.31314895  0.42179025  0.53686308    -0.51790
C993        C  0.32534736  0.44694644  0.54031275     0.71550
O994        O  0.40353964  0.40673980  0.63092235    -0.60130
O995        O  0.40562252  0.43253816  0.66916054    -0.52110
C996        C  0.41430245  0.42016024  0.65415545     0.73350
O997        O  0.34025981  0.35850952  0.56718776    -0.71520
O998        O  0.31152377  0.36506843  0.54222747    -0.50200
C999        C  0.32559083  0.35402693  0.54537579     0.74730
O1000       O  0.40008743  0.49326662  0.62812651    -0.66850
O1001       O  0.40392258  0.47782042  0.66825728    -0.54050
C1002       C  0.41131342  0.49570301  0.65206909     0.73120
Zr1003     Zr  0.36383835  0.46056767  0.59615972     2.77540
O1004       O  0.39505108  0.46906962  0.56049996    -0.97600
O1005       O  0.37406567  0.50510596  0.59346596    -0.78420
Zr1006     Zr  0.36683788  0.39685941  0.59856692     2.70070
O1007       O  0.39641887  0.41738937  0.56243808    -0.79670
O1008       O  0.38660634  0.36933207  0.59383095    -0.98750
Zr1009     Zr  0.36635944  0.43548187  0.66445530     2.21500
Zr1010     Zr  0.30209962  0.39303521  0.57560557     2.11130
O1011       O  0.34935969  0.41816752  0.57374887    -2.47440
O1012       O  0.38206499  0.43936292  0.61934363    -0.79460
O1013       O  0.31723610  0.43603702  0.59748432    -0.71660
O1014       O  0.35332108  0.39296016  0.64424006    -2.32620
O1015       O  0.34944544  0.45805477  0.64120015    -2.28820
O1016       O  0.32057881  0.37219160  0.60076897    -0.73420
H1017       H  0.27070165  0.38095295  0.62320168     0.78580
H1018       H  0.36115275  0.38477167  0.65403717     0.79670
H1019       H  0.35406626  0.41884720  0.55479948     0.81890
H1020       H  0.35588730  0.47544735  0.64968947     0.79500
H1021       H  0.31804424  0.32926147  0.63014292     0.42530
H1022       H  0.37295490  0.35215455  0.59876035     0.41500
H1023       H  0.41334395  0.42995668  0.57253183     0.41180
H1024       H  0.38435108  0.46266793  0.54278288     0.39110
H1025       H  0.36129015  0.50693681  0.60508494     0.42250
H1026       H  0.31850542  0.48624837  0.63860022     0.37030
H1027       H  0.27420120  0.41057431  0.68931314     0.43150
H1028       H  0.25866444  0.35883114  0.66899241     0.39560
H1029       H  0.40486331  0.48816439  0.56052202     0.44480
H1030       H  0.29104028  0.47387213  0.65137380     0.43200
H1031       H  0.26511228  0.33821847  0.67911027     0.43340
H1032       H  0.38829068  0.36677280  0.57378797     0.43700
C1033       C  0.43429718  0.02088197  0.66169173    -0.05350
C1034       C  0.45571884  0.02210167  0.67653013    -0.32770
C1035       C  0.47901900  0.04584967  0.68260504     0.36480
C1036       C  0.48098505  0.06843260  0.67344656    -0.05700
C1037       C  0.45833133  0.06745294  0.66200163    -0.32670
C1038       C  0.43528142  0.04392966  0.65574719     0.36380
H1039       H  0.45490508  0.50450654  0.68207670     0.16750
O1040       O  0.00017196  0.04637929  0.69547379    -0.60170
H1041       H  0.45905973  0.08488032  0.65596398     0.16770
O1042       O  0.41390007  0.04362935  0.64355359    -0.60270
H1043       H  0.41803318  0.04663472  0.62404759     0.43760
H1044       H  0.99911206  0.05051730  0.71536324     0.43720
C1045       C  0.18476888  0.26516846  0.61119301    -0.05350
C1046       C  0.20752579  0.26376005  0.60657496    -0.32770
C1047       C  0.23021106  0.28510514  0.59826894     0.36480
C1048       C  0.23052586  0.30844864  0.59438109    -0.05700
C1049       C  0.20728278  0.30938675  0.59764082    -0.32670
C1050       C  0.18453904  0.28797073  0.60593294     0.36380
H1051       H  0.20785890  0.24618217  0.60984187     0.16750
O1052       O  0.25248800  0.28341316  0.59500950    -0.60170
H1053       H  0.20734017  0.32739359  0.59587957     0.16770
O1054       O  0.16259778  0.28999762  0.61024829    -0.60270
H1055       H  0.16453710  0.29676632  0.62990717     0.43760
H1056       H  0.26005358  0.28533547  0.61397025     0.43720
C1057       C  0.14248151  0.15040677  0.74494207    -0.05350
C1058       C  0.16420505  0.16832910  0.76270729    -0.32770
C1059       C  0.17510520  0.15977102  0.78277362     0.36480
C1060       C  0.16516489  0.13301193  0.78441977    -0.05700
C1061       C  0.14488719  0.11539520  0.76533944    -0.32670
C1062       C  0.13328742  0.12373956  0.74632360     0.36380
H1063       H  0.17166587  0.18890057  0.76219039     0.16750
O1064       O  0.19399314  0.17759848  0.80196348    -0.60170
H1065       H  0.13635701  0.09475643  0.76674788     0.16770
O1066       O  0.11244923  0.10540515  0.72942937    -0.60270
H1067       H  0.09709294  0.09893504  0.74100329     0.43760
H1068       H  0.21093456  0.18082312  0.79471714     0.43720
C1069       C  0.13214761  0.15963572  0.53540344    -0.05350
C1070       C  0.11313772  0.14187836  0.51529227    -0.32770
C1071       C  0.11906877  0.12702126  0.99628332     0.36480
C1072       C  0.14452231  0.13026178  0.99676454    -0.05700
C1073       C  0.16408562  0.14947108  0.51557742    -0.32670
C1074       C  0.15792738  0.16379677  0.53511489     0.36380
H1075       H  0.09301862  0.13787140  0.51584535     0.16750
O1076       O  0.09989832  0.10956388  0.97712518    -0.60170
H1077       H  0.18393004  0.15265659  0.51579135     0.16770
O1078       O  0.17655264  0.18006054  0.55543637    -0.60270
H1079       H  0.18372924  0.19766922  0.54936983     0.43760
H1080       H  0.08959879  0.09377105  0.98669644     0.43720
C1081       C  0.12324026  0.45824833  0.51477459    -0.05350
C1082       C  0.15019563  0.47505514  0.51219972    -0.32770
C1083       C  0.15895995  0.99551745  0.49522206     0.36480
C1084       C  0.14066740  0.00005116  0.98107780    -0.05700
C1085       C  0.11374080  0.48231448  0.98247101    -0.32670
C1086       C  0.10506071  0.46157041  0.49888596     0.36380
H1087       H  0.16451613  0.47362266  0.52511932     0.16750
O1088       O  0.18541820  0.01227005  0.99455307    -0.60170
H1089       H  0.09924811  0.48484403  0.97121126     0.16770
O1090       O  0.07861279  0.44622481  0.50155578    -0.60270
H1091       H  0.07305151  0.43083076  0.48809699     0.43760
H1092       H  0.19153249  0.00385207  0.48050435     0.43720
C1093       C  0.14975838  0.48800320  0.73424652    -0.05350
C1094       C  0.14884866  0.47825670  0.75955716    -0.32770
C1095       C  0.15950706  0.99495116  0.78375103     0.36480
C1096       C  0.17050122  0.02211657  0.78312721    -0.05700
C1097       C  0.17297179  0.03189607  0.75729871    -0.32670
C1098       C  0.16288030  0.01499184  0.73293160     0.36380
H1099       H  0.13902329  0.45749482  0.76070858     0.16750
O1100       O  0.15766806  0.48418874  0.80806373    -0.60170
H1101       H  0.18138515  0.05251882  0.75606283     0.16770
O1102       O  0.16427212  0.02494317  0.70818567    -0.60270
H1103       H  0.18030579  0.02631228  0.70023537     0.43760
H1104       H  0.17465561  0.48470721  0.81112189     0.43720
C1105       C  0.09308165  0.02340653  0.67042150    -0.05350
C1106       C  0.07018362  0.02316977  0.67866622    -0.32770
C1107       C  0.06872485  0.04597636  0.68073044     0.36480
C1108       C  0.09086057  0.06962883  0.67598467    -0.05700
C1109       C  0.11459553  0.07012782  0.67071974    -0.32670
C1110       C  0.11574477  0.04724243  0.66771045     0.36380
H1111       H  0.05284737  0.50497448  0.68148318     0.16750
O1112       O  0.04503068  0.04449414  0.68477109    -0.60170
H1113       H  0.13196149  0.08819766  0.66723754     0.16770
O1114       O  0.13877408  0.04821777  0.66094931    -0.60270
H1115       H  0.14956774  0.05343579  0.67859712     0.43760
H1116       H  0.03630084  0.04068227  0.66603323     0.43720
C1117       C  0.07649210  0.30851265  0.59830391    -0.05350
C1118       C  0.05490356  0.28749829  0.60883960    -0.32770
C1119       C  0.05572816  0.26535809  0.61492747     0.36480
C1120       C  0.07815025  0.26328868  0.60983473    -0.05700
C1121       C  0.09878984  0.28314899  0.59676734    -0.32670
C1122       C  0.09820770  0.30575610  0.59128011     0.36380
H1123       H  0.03785056  0.28901621  0.61422389     0.16750
O1124       O  0.03445058  0.24583107  0.62596892    -0.60170
H1125       H  0.11604492  0.28178638  0.59216461     0.16770
O1126       O  0.11989695  0.32586911  0.58154447    -0.60270
H1127       H  0.11671032  0.32312292  0.56119342     0.43760
H1128       H  0.03577862  0.25189042  0.64578508     0.43720
C1129       C  0.17612707  0.39943522  0.59029179    -0.05350
C1130       C  0.19231344  0.41023225  0.56842704    -0.32770
C1131       C  0.21641451  0.41043011  0.56676058     0.36480
C1132       C  0.22417128  0.39936427  0.58685087    -0.05700
C1133       C  0.20688110  0.38682139  0.60722368    -0.32670
C1134       C  0.18318440  0.38681816  0.60906648     0.36380
H1135       H  0.18726644  0.42017681  0.55392269     0.16750
O1136       O  0.23296552  0.42302812  0.54673303    -0.60170
H1137       H  0.21258359  0.37833498  0.62293971     0.16770
O1138       O  0.16786948  0.37601778  0.63059920    -0.60270
H1139       H  0.15646781  0.35742332  0.62409115     0.43760
H1140       H  0.24392114  0.44124631  0.55482309     0.43720
C1141       C  0.48757496  0.42426912  0.66978046    -0.05350
C1142       C  0.46429106  0.40178412  0.67477163    -0.32770
C1143       C  0.44001674  0.40059435  0.67133837     0.36480
C1144       C  0.43908062  0.42225223  0.66343203    -0.05700
C1145       C  0.46237134  0.44524924  0.66039603    -0.32670
C1146       C  0.48664142  0.44632872  0.66323153     0.36380
H1147       H  0.46478828  0.38448736  0.67905626     0.16750
O1148       O  0.41730109  0.37792288  0.67449496    -0.60170
H1149       H  0.46160743  0.46173553  0.65358593     0.16770
O1150       O  0.50883211  0.46752280  0.65567509    -0.60270
H1151       H  0.50942403  0.48284352  0.66589832     0.43760
H1152       H  0.41276295  0.36767775  0.65622027     0.43720
C1153       C  0.48373436  0.12922375  0.99424513    -0.05350
C1154       C  0.48737677  0.15147101  0.51043731    -0.32770
C1155       C  0.00879493  0.16503639  0.52997546     0.36480
C1156       C  0.02750593  0.15704843  0.53284915    -0.05700
C1157       C  0.02483099  0.13598780  0.51543017    -0.32670
C1158       C  0.50309343  0.12191280  0.99662472     0.36380
H1159       H  0.47303964  0.15775185  0.50870052     0.16750
O1160       O  0.01001299  0.18460075  0.54778790    -0.60170
H1161       H  0.03855203  0.12903077  0.51805097     0.16770
O1162       O  0.50112272  0.10107638  0.98057233    -0.60270
H1163       H  0.99336851  0.08647005  0.99226663     0.43760
H1164       H  0.52250296  0.20083742  0.53997373     0.43720
C1165       C  0.00948324  0.15011845  0.74278689    -0.05350
C1166       C  0.00514361  0.16853467  0.75816578    -0.32770
C1167       C  0.48559599  0.16081988  0.77763710     0.36480
C1168       C  0.46932327  0.13433387  0.78112346    -0.05700
C1169       C  0.47262750  0.11608162  0.76450476    -0.32670
C1170       C  0.49241887  0.12364755  0.74579235     0.36380
H1171       H  0.01783223  0.18898325  0.75619312     0.16750
O1172       O  0.48392259  0.17933901  0.79451932    -0.60170
H1173       H  0.46093477  0.09568298  0.76748218     0.16770
O1174       O  0.49545189  0.10487084  0.73115244    -0.60270
H1175       H  0.47878390  0.09421211  0.71974727     0.43760
H1176       H  0.96987588  0.18136521  0.78553700     0.43720
C1177       C  0.35747962  0.00166670  0.97741228    -0.05350
C1178       C  0.33452888  0.47729084  0.97062798    -0.32770
C1179       C  0.32371158  0.45866095  0.99018645     0.36480
C1180       C  0.33549642  0.46439683  0.51722301    -0.05700
C1181       C  0.35810707  0.48891162  0.52358313    -0.32670
C1182       C  0.36910919  0.00706796  0.50430083     0.36380
H1183       H  0.32522426  0.47249582  0.95000033     0.16750
O1184       O  0.30162378  0.43523946  0.98269628    -0.60170
H1185       H  0.36785763  0.49420858  0.54386498     0.16770
O1186       O  0.39088444  0.03063216  0.51243206    -0.60270
H1187       H  0.40591678  0.02743787  0.51197625     0.43760
H1188       H  0.28670741  0.43782599  0.98758059     0.43720
C1189       C  0.35931698  0.02703317  0.77117255    -0.05350
C1190       C  0.33608104  0.50274344  0.76916635    -0.32770
C1191       C  0.33021483  0.48436906  0.74650364     0.36480
C1192       C  0.34777829  0.48994711  0.72544145    -0.05700
C1193       C  0.37053446  0.01449063  0.72682130    -0.32670
C1194       C  0.37621095  0.03309488  0.74929297     0.36380
H1195       H  0.32304696  0.49748522  0.78596238     0.16750
O1196       O  0.30798104  0.46050792  0.74586145    -0.60170
H1197       H  0.38422135  0.01904332  0.71066517     0.16770
O1198       O  0.39950259  0.05611561  0.75087670    -0.60270
H1199       H  0.39544565  0.06814263  0.74182586     0.43760
H1200       H  0.31351347  0.44953550  0.75496772     0.43720
C1201       C  0.06313432  0.08115482  0.92453931    -0.05350
C1202       C  0.06328516  0.10366458  0.91815631    -0.32770
C1203       C  0.04040284  0.10499749  0.91836765     0.36480
C1204       C  0.01685873  0.08349629  0.92498429    -0.05700
C1205       C  0.01762279  0.06275377  0.93577123    -0.32670
C1206       C  0.04079537  0.06139780  0.93550614     0.36380
H1207       H  0.08090136  0.11978854  0.91142662     0.16750
O1208       O  0.04100004  0.12705268  0.91116340    -0.60170
H1209       H  0.49993225  0.04680564  0.94247340     0.16770
O1210       O  0.04120490  0.04045637  0.94477833    -0.60270
H1211       H  0.02693521  0.02493069  0.93390326     0.43760
H1212       H  0.04343124  0.12717298  0.89104858     0.43720
C1213       C  0.31133785  0.07290997  0.85440891    -0.05350
C1214       C  0.29888051  0.06692378  0.87910592    -0.32770
C1215       C  0.27643887  0.06851031  0.88331292     0.36480
C1216       C  0.26536457  0.07590388  0.86220876    -0.05700
C1217       C  0.27812253  0.08237291  0.83739528    -0.32670
C1218       C  0.30122367  0.08121882  0.83355305     0.36380
H1219       H  0.30706671  0.06168284  0.89585650     0.16750
O1220       O  0.26628281  0.06382989  0.90879168    -0.60170
H1221       H  0.27021899  0.08826808  0.82098284     0.16770
O1222       O  0.31322477  0.08743474  0.80917021    -0.60270
H1223       H  0.32455301  0.10656297  0.81139257     0.43760
H1224       H  0.25676901  0.04470359  0.90885130     0.43720
C1225       C  0.46968986  0.32387991  0.98160797    -0.05350
C1226       C  0.47392698  0.34714464  0.99533756    -0.32770
C1227       C  0.99565830  0.36206103  0.51374784     0.36480
C1228       C  0.01298768  0.35304993  0.52088356    -0.05700
C1229       C  0.00856789  0.32932388  0.50765730    -0.32670
C1230       C  0.48741668  0.31509056  0.98760254     0.36380
H1231       H  0.46154960  0.35504258  0.98989903     0.16750
O1232       O  0.00003518  0.38591065  0.52447665    -0.60170
H1233       H  0.02132885  0.32182283  0.51288360     0.16770
O1234       O  0.48472806  0.29313194  0.97331476    -0.60270
H1235       H  0.47186242  0.27862297  0.98326773     0.43760
H1236       H  0.01299820  0.39844380  0.51268753     0.43720
C1237       C  0.02007618  0.37574315  0.73228963    -0.05350
C1238       C  0.50554217  0.38807899  0.73860086    -0.32770
C1239       C  0.48650151  0.37906719  0.75790609     0.36480
C1240       C  0.48212263  0.35765577  0.77214067    -0.05700
C1241       C  0.49612329  0.34476002  0.76514679    -0.32670
C1242       C  0.01475943  0.35347021  0.74513394     0.36380
H1243       H  0.00861979  0.40464063  0.72812192     0.16750
O1244       O  0.47251774  0.39161719  0.76278814    -0.60170
H1245       H  0.49313779  0.32825997  0.77565344     0.16770
O1246       O  0.02850736  0.34084258  0.73926977    -0.60270
H1247       H  0.01698846  0.32607030  0.72556212     0.43760
H1248       H  0.45679734  0.38241390  0.74971014     0.43720
C1249       C  0.42414717  0.43844767  0.87591854    -0.05350
C1250       C  0.44620294  0.46049086  0.88879128    -0.32770
C1251       C  0.44411902  0.48184484  0.89880978     0.36480
C1252       C  0.41972363  0.48065678  0.89620359    -0.05700
C1253       C  0.39757418  0.45811046  0.88418974    -0.32670
C1254       C  0.39982547  0.43729906  0.87347152     0.36380
H1255       H  0.46463869  0.46074518  0.89189499     0.16750
O1256       O  0.46606681  0.00406252  0.90974261    -0.60170
H1257       H  0.37877879  0.45728552  0.88169915     0.16770
O1258       O  0.37786571  0.41527568  0.86198958    -0.60270
H1259       H  0.37868029  0.41641796  0.84178585     0.43760
H1260       H  0.46783470  0.50134195  0.92931145     0.43720
C1261       C  0.40955175  0.22570158  0.87898660    -0.05350
C1262       C  0.38842592  0.20425638  0.88911714    -0.32770
C1263       C  0.38674115  0.18002376  0.88572606     0.36480
C1264       C  0.40625413  0.17727015  0.87203791    -0.05700
C1265       C  0.42723979  0.19851701  0.86194537    -0.32670
C1266       C  0.42910219  0.22268061  0.86539274     0.36380
H1267       H  0.37320060  0.20624323  0.89938404     0.16750
O1268       O  0.36649031  0.15932572  0.89655011    -0.60170
H1269       H  0.44287464  0.19662271  0.85249688     0.16770
O1270       O  0.45087314  0.24353963  0.85672727    -0.60270
H1271       H  0.44841147  0.24147553  0.83630705     0.43760
H1272       H  0.35305292  0.15004690  0.88102760     0.43720
C1273       C  0.01795040  0.42990157  0.88057953    -0.05350
C1274       C  0.01597961  0.45239497  0.88031057    -0.32770
C1275       C  0.03638601  0.47631890  0.89173441     0.36480
C1276       C  0.05897129  0.47779260  0.90374488    -0.05700
C1277       C  0.06043397  0.45529297  0.90557505    -0.32670
C1278       C  0.04030488  0.43145727  0.89376210     0.36380
H1279       H  0.99892928  0.45168324  0.87049320     0.16750
O1280       O  0.03565925  0.99854271  0.88805199    -0.60170
H1281       H  0.07836964  0.45661219  0.91380415     0.16770
O1282       O  0.04344625  0.41021471  0.89395592    -0.60270
H1283       H  0.05199119  0.40975688  0.87667816     0.43760
H1284       H  0.01891392  0.99593944  0.89529089     0.43720
C1285       C  0.26616121  0.18037616  0.87473109    -0.05350
C1286       C  0.26568532  0.20350388  0.88033850    -0.32770
C1287       C  0.28896639  0.22719432  0.88352482     0.36480
C1288       C  0.31312249  0.22788844  0.88157091    -0.05700
C1289       C  0.31375158  0.20484553  0.87580002    -0.32670
C1290       C  0.29029713  0.18104496  0.87211020     0.36380
H1291       H  0.24717465  0.20309645  0.88279784     0.16750
O1292       O  0.28799212  0.24960587  0.88874273    -0.60170
H1293       H  0.33235892  0.20537963  0.87380491     0.16770
O1294       O  0.29119234  0.15854614  0.86763107    -0.60270
H1295       H  0.29062747  0.15524769  0.84729131     0.43760
H1296       H  0.29008890  0.25329875  0.90911841     0.43720
C1297       C  0.32723575  0.33613917  0.52279340    -0.05350
C1298       C  0.34180412  0.32365196  0.52835625    -0.32770
C1299       C  0.35142582  0.31386659  0.50704753     0.36480
C1300       C  0.34585893  0.31548135  0.97941645    -0.05700
C1301       C  0.32805189  0.32432407  0.97388936    -0.32670
C1302       C  0.31901233  0.33477502  0.99510760     0.36380
H1303       H  0.34788043  0.32346981  0.54940110     0.16750
O1304       O  0.36841709  0.30530663  0.51356471    -0.60170
H1305       H  0.32344395  0.32583239  0.95271257     0.16770
O1306       O  0.30459906  0.34606872  0.98818817    -0.60270
H1307       H  0.28599903  0.33212570  0.98808607     0.43760
H1308       H  0.38600734  0.32111049  0.51625697     0.43720
C1309       C  0.37256016  0.36160211  0.77594274    -0.05350
C1310       C  0.39017152  0.38441562  0.76451811    -0.32770
C1311       C  0.38228336  0.39295654  0.74245976     0.36480
C1312       C  0.35604950  0.37889720  0.73130600    -0.05700
C1313       C  0.33831999  0.35598477  0.74247639    -0.32670
C1314       C  0.34634075  0.34726493  0.76457645     0.36380
H1315       H  0.41046670  0.39582616  0.77246798     0.16750
O1316       O  0.40072046  0.41489747  0.73164559    -0.60170
H1317       H  0.31816129  0.34475111  0.73405740     0.16770
O1318       O  0.32828102  0.32486644  0.77491135    -0.60270
H1319       H  0.32909214  0.31073876  0.76365477     0.43760
H1320       H  0.40965652  0.40890360  0.71836517     0.43720
O1321       O  0.36611058  0.83302415  0.31046453    -0.75170
O1322       O  0.40667761  0.86796937  0.30751423    -0.54080
C1323       C  0.38229424  0.85356742  0.29945727     0.78560
O1324       O  0.37346400  0.83925492  0.44708167    -0.59770
O1325       O  0.37062787  0.80010875  0.45044623    -0.52800
C1326       C  0.36447513  0.81784370  0.45773170     0.70570
O1327       O  0.41321017  0.90140392  0.39492203    -0.74330
O1328       O  0.43233483  0.90711825  0.35365146    -0.54890
C1329       C  0.42363810  0.91426012  0.37448653     0.76570
O1330       O  0.33841780  0.76706734  0.36354382    -0.59470
O1331       O  0.35513219  0.75868759  0.40178718    -0.52590
C1332       C  0.33726008  0.75281750  0.38251122     0.73170
Zr1333     Zr  0.36805867  0.80848024  0.34733980     2.54710
O1334       O  0.32767095  0.80979148  0.35339033    -0.80040
O1335       O  0.34963082  0.77683363  0.30697602    -0.93460
Zr1336     Zr  0.40082321  0.86068921  0.41135111     2.64680
O1337       O  0.36369393  0.86822857  0.41017814    -0.98410
O1338       O  0.42064912  0.89046223  0.45292332    -0.80470
O1339       O  0.39273959  0.85295803  0.36294982    -0.83830
O1340       O  0.37444724  0.81629618  0.39606120    -2.18540
O1341       O  0.41965832  0.76332829  0.35932424    -0.67220
O1342       O  0.40240371  0.75833101  0.40177564    -0.51790
C1343       C  0.41042354  0.75070576  0.38036651     0.71550
O1344       O  0.49439058  0.88388094  0.37434132    -0.60130
O1345       O  0.47713561  0.90520063  0.35499693    -0.52110
C1346       C  0.49567260  0.90504286  0.36889522     0.73350
O1347       O  0.46854971  0.82630144  0.43486002    -0.71520
O1348       O  0.42897915  0.80514328  0.45310677    -0.50200
C1349       C  0.45443704  0.81647721  0.45489918     0.74730
O1350       O  0.45782280  0.82809802  0.30483945    -0.66850
O1351       O  0.45826485  0.86643151  0.30563663    -0.54050
C1352       C  0.46470167  0.85004484  0.29547557     0.73120
Zr1353     Zr  0.43257608  0.80454117  0.34269953     2.77540
O1354       O  0.47290729  0.80242244  0.34192101    -0.97600
O1355       O  0.41180164  0.77304285  0.30257631    -0.78420
Zr1356     Zr  0.46532061  0.85614062  0.40689951     2.70070
O1357       O  0.50953209  0.86552283  0.42017161    -0.79670
O1358       O  0.47931101  0.89143527  0.44348915    -0.98750
Zr1359     Zr  0.43445705  0.86819202  0.34451007     2.21500
Zr1360     Zr  0.39811308  0.79660050  0.41275267     2.11130
O1361       O  0.43923984  0.81139665  0.39145157    -2.47440
O1362       O  0.45902764  0.84865460  0.35819195    -0.79460
O1363       O  0.39181992  0.78922564  0.36320945    -0.71660
O1364       O  0.44248718  0.87710266  0.39349929    -2.32620
O1365       O  0.40893361  0.82393292  0.32713805    -2.28820
O1366       O  0.42456427  0.84147851  0.42796591    -0.73420
H1367       H  0.35721973  0.80910928  0.40318926     0.78580
H1368       H  0.45301712  0.89541836  0.39922367     0.79670
H1369       H  0.44722789  0.80129854  0.39591839     0.81890
H1370       H  0.40681987  0.82184472  0.30722881     0.79500
H1371       H  0.43536561  0.90628473  0.44652662     0.42530
H1372       H  0.46476014  0.88525759  0.45604064     0.41500
H1373       H  0.01364825  0.85586678  0.40551099     0.41180
H1374       H  0.47420023  0.79586446  0.35958661     0.39110
H1375       H  0.39297327  0.76334615  0.30639547     0.42250
H1376       H  0.36128974  0.78524731  0.29205506     0.37030
H1377       H  0.33346755  0.82848233  0.35656494     0.43150
H1378       H  0.34791813  0.85073358  0.40847768     0.39560
H1379       H  0.46910831  0.78811297  0.32760637     0.44480
H1380       H  0.33300544  0.77631937  0.30176859     0.43200
H1381       H  0.36376727  0.87575158  0.42905115     0.43340
H1382       H  0.49386883  0.89157483  0.45415535     0.43700
O1383       O  0.41570970  0.65169017  0.39738211    -0.75170
O1384       O  0.40295649  0.63865431  0.35152272    -0.54080
C1385       C  0.40816231  0.65416257  0.37354560     0.78560
O1386       O  0.49174153  0.59266876  0.39532366    -0.59770
O1387       O  0.47151594  0.56821287  0.43045200    -0.52800
C1388       C  0.49168174  0.58134350  0.41671044     0.70570
O1389       O  0.46943101  0.62116817  0.32436409    -0.74330
O1390       O  0.43154601  0.61945551  0.30918610    -0.54890
C1391       C  0.45581716  0.62529844  0.30681296     0.76570
O1392       O  0.45452947  0.62953361  0.46045670    -0.59470
O1393       O  0.45246191  0.59101711  0.46627352    -0.52590
C1394       C  0.46159705  0.61549368  0.47288692     0.73170
Zr1395     Zr  0.42688250  0.62338879  0.41938557     2.54710
O1396       O  0.46298852  0.66789807  0.42667157    -0.80040
O1397       O  0.40257788  0.63135729  0.45517841    -0.93460
Zr1398     Zr  0.46328463  0.60056014  0.36623591     2.64680
O1399       O  0.50127311  0.64382615  0.37580874    -0.98410
O1400       O  0.48666039  0.58511910  0.33664207    -0.80470
O1401       O  0.43873274  0.62197078  0.37278836    -0.83830
O1402       O  0.45275845  0.60372718  0.41201071    -2.18540
O1403       O  0.35544913  0.52490449  0.43985314    -0.67220
O1404       O  0.39554297  0.53328762  0.45702127    -0.51790
C1405       C  0.37018354  0.52114018  0.45672634     0.71550
O1406       O  0.36436824  0.52954144  0.31928803    -0.60130
O1407       O  0.38140672  0.56746762  0.30078561    -0.52110
C1408       C  0.36853320  0.54247392  0.29845653     0.73350
O1409       O  0.40820551  0.50606903  0.37458850    -0.71520
O1410       O  0.42709574  0.52066325  0.41826421    -0.50200
C1411       C  0.41828765  0.50404381  0.39696462     0.74730
O1412       O  0.33678223  0.55357121  0.36385816    -0.66850
O1413       O  0.35537896  0.58972839  0.34157297    -0.54050
C1414       C  0.33578194  0.57193762  0.35272932     0.73120
Zr1415     Zr  0.36248671  0.55596132  0.40521020     2.77540
O1416       O  0.31604064  0.52421894  0.40716616    -0.97600
O1417       O  0.34894532  0.58109869  0.43540545    -0.78420
Zr1418     Zr  0.39824645  0.53386211  0.35141459     2.70070
O1419       O  0.36719319  0.98819510  0.33838550    -0.79670
O1420       O  0.42063008  0.52751046  0.31246504    -0.98750
Zr1421     Zr  0.39941837  0.59646136  0.34392846     2.21500
Zr1422     Zr  0.42739988  0.56114308  0.42568990     2.11130
O1423       O  0.38732370  0.53494069  0.39791972    -2.47440
O1424       O  0.37302322  0.55395607  0.35843635    -0.79460
O1425       O  0.40154451  0.58128358  0.43423654    -0.71660
O1426       O  0.42461508  0.57551412  0.33725543    -2.32620
O1427       O  0.38756145  0.59839777  0.39121396    -2.28820
O1428       O  0.43800551  0.55799248  0.37887997    -0.73420
H1429       H  0.46953996  0.61361559  0.42218686     0.78580
H1430       H  0.42846720  0.57427590  0.31817722     0.79670
H1431       H  0.37799117  0.51730223  0.40263609     0.81890
H1432       H  0.37683206  0.60646205  0.39280654     0.79500
H1433       H  0.47317525  0.57262716  0.32241457     0.42530
H1434       H  0.42449525  0.51393844  0.31748087     0.41500
H1435       H  0.35336387  0.48362305  0.35173277     0.41180
H1436       H  0.31485797  0.50710307  0.40374323     0.39110
H1437       H  0.35019448  0.57615394  0.45407210     0.42250
H1438       H  0.38992898  0.63464628  0.44509977     0.37030
H1439       H  0.47643436  0.66832721  0.41436875     0.43150
H1440       H  0.50619274  0.64537125  0.39568250     0.39560
H1441       H  0.31208982  0.52541280  0.42674193     0.44480
H1442       H  0.41544605  0.64844214  0.46478067     0.43200
H1443       H  0.01557727  0.64292535  0.36622070     0.43340
H1444       H  0.40677679  0.51884732  0.29728227     0.43700
O1445       O  0.00688495  0.90753465  0.14011723    -0.75170
O1446       O  0.03216736  0.93505868  0.17727817    -0.54080
C1447       C  0.01038192  0.92190895  0.16251079     0.78560
O1448       O  0.07091502  0.83846982  0.12598238    -0.59770
O1449       O  0.08620613  0.85052882  0.08365897    -0.52800
C1450       C  0.07807927  0.83427236  0.10234485     0.70570
O1451       O  0.04140209  0.86934139  0.19411687    -0.74330
O1452       O  0.05143670  0.91041907  0.20964208    -0.54890
C1453       C  0.03928725  0.88579025  0.21099976     0.76570
O1454       O  0.02234927  0.87512080  0.06417809    -0.59470
O1455       O  0.05564178  0.87047704  0.04666770    -0.52590
C1456       C  0.03193058  0.86687721  0.04527166     0.73170
Zr1457     Zr  0.03348320  0.89956045  0.10809163     2.54710
O1458       O  0.49040492  0.86085690  0.10726397    -0.80040
O1459       O  0.01645845  0.92123297  0.08094007    -0.93460
Zr1460     Zr  0.06603398  0.87062765  0.15385311     2.64680
O1461       O  0.02643024  0.82851705  0.15451781    -0.98410
O1462       O  0.08981466  0.86003223  0.18700758    -0.80470
O1463       O  0.04436676  0.89474339  0.15295569    -0.83830
O1464       O  0.05364037  0.87367967  0.10812755    -2.18540
O1465       O  0.11348108  0.96189056  0.05967098    -0.67220
O1466       O  0.10904350  0.92270452  0.04388210    -0.51790
C1467       C  0.11482125  0.94639325  0.04100516     0.71550
O1468       O  0.14650803  0.96343241  0.19226627    -0.60130
O1469       O  0.10946359  0.96157118  0.20901629    -0.52110
C1470       C  0.13432747  0.96985573  0.21021305     0.73350
O1471       O  0.15669589  0.91610739  0.12106327    -0.71520
O1472       O  0.13510334  0.89728234  0.07885532    -0.50200
C1473       C  0.15455145  0.90472465  0.09677823     0.74730
O1474       O  0.10064108  0.99662010  0.13790312    -0.66850
O1475       O  0.08158741  0.98050520  0.17763913    -0.54050
C1476       C  0.09204368  0.99869588  0.16166439     0.73120
Zr1477     Zr  0.10190417  0.96309756  0.10641604     2.77540
O1478       O  0.14610897  0.00022607  0.10693235    -0.97600
O1479       O  0.08239946  0.98327443  0.08040138    -0.78420
Zr1480     Zr  0.13442089  0.93317697  0.15048778     2.70070
O1481       O  0.17791380  0.96928995  0.14430139    -0.79670
O1482       O  0.15107641  0.91490318  0.18292090    -0.98750
Zr1483     Zr  0.07441804  0.93696010  0.17356719     2.21500
Zr1484     Zr  0.09238232  0.89492109  0.08283947     2.11130
O1485       O  0.12271737  0.93752340  0.10507538    -2.47440
O1486       O  0.11415836  0.95890712  0.15093543    -0.79460
O1487       O  0.07202168  0.92118178  0.08392767    -0.71660
O1488       O  0.09612077  0.91221010  0.17572367    -2.32620
O1489       O  0.06233797  0.94189613  0.12863415    -2.29180
O1490       O  0.10432113  0.89139025  0.12900834    -0.73420
H1491       H  0.04180853  0.85647539  0.09941340     0.78580
H1492       H  0.10055476  0.91121014  0.19460506     0.79670
H1493       H  0.13836601  0.94560087  0.09491884     0.81890
H1494       H  0.05371970  0.95210105  0.12927079     0.79500
H1495       H  0.07634117  0.84908879  0.19940013     0.42530
H1496       H  0.14446859  0.89685699  0.17487279     0.41500
H1497       H  0.17519805  0.98430829  0.14338232     0.41180
H1498       H  0.15609363  0.99392339  0.09574031     0.39110
H1499       H  0.07347802  0.97107061  0.06374087     0.42250
H1500       H  0.03072448  0.93135539  0.06889258     0.37030
H1501       H  0.49358981  0.84846899  0.11667690     0.43150
H1502       H  0.02044312  0.82222875  0.13489904     0.39560
H1503       H  0.14420009  0.51227927  0.09551824     0.44480
H1504       H  0.01596470  0.93443003  0.09414237     0.43200
H1505       H  0.03259057  0.81696081  0.16086232     0.43340
H1506       H  0.17023601  0.92374864  0.18066349     0.43700
O1507       O  0.14962413  0.61799306  0.32637360    -0.75170
O1508       O  0.18634113  0.61668071  0.31385144    -0.54080
C1509       C  0.16810257  0.62262235  0.31014952     0.78560
O1510       O  0.17226202  0.63011049  0.46296682    -0.59770
O1511       O  0.13566413  0.59162160  0.46930348    -0.52800
C1512       C  0.15148829  0.61614593  0.47547329     0.70570
O1513       O  0.23024654  0.65480452  0.39901954    -0.74330
O1514       O  0.23403392  0.63780256  0.35673903    -0.54890
C1515       C  0.24185505  0.65599310  0.37663890     0.76570
O1516       O  0.09661709  0.58873111  0.39509311    -0.59470
O1517       O  0.09312507  0.56632072  0.43217502    -0.52590
C1518       C  0.08564441  0.57831012  0.41691513     0.73170
Zr1519     Zr  0.13287485  0.59572426  0.36689021     2.54710
O1520       O  0.13126904  0.63577139  0.37131920    -0.80040
O1521       O  0.09475827  0.57385351  0.33410163    -0.93460
Zr1522     Zr  0.19288137  0.62465700  0.42227835     2.64680
O1523       O  0.19713324  0.66751181  0.42561787    -0.98410
O1524       O  0.22802660  0.63774412  0.45770869    -0.80470
O1525       O  0.17920821  0.61936107  0.37485689    -0.83830
O1526       O  0.14690948  0.60230891  0.41371363    -2.18540
O1527       O  0.09573416  0.50295534  0.38150918    -0.67220
O1528       O  0.09125506  0.51928528  0.42374684    -0.51790
C1529       C  0.08360216  0.50166680  0.40343685     0.71550
O1530       O  0.22856772  0.56610001  0.38761432    -0.60130
O1531       O  0.23344530  0.58811885  0.34999245    -0.52110
C1532       C  0.24084001  0.57677269  0.36655702     0.73350
O1533       O  0.16979720  0.52896828  0.45033029    -0.71520
O1534       O  0.13408434  0.53233458  0.46200398    -0.50200
C1535       C  0.14900374  0.52221690  0.46383438     0.74730
O1536       O  0.16655794  0.52801587  0.33098725    -0.66850
O1537       O  0.18648523  0.56402156  0.30931255    -0.54050
C1538       C  0.17524833  0.53918671  0.30912807     0.73120
Zr1539     Zr  0.13420391  0.53099409  0.35851342     2.77540
O1540       O  0.12246587  0.98572000  0.34899397    -0.97600
O1541       O  0.10596796  0.52127943  0.31703029    -0.78420
Zr1542     Zr  0.19254621  0.55914780  0.41566321     2.70070
O1543       O  0.20204860  0.52385018  0.41524158    -0.79670
O1544       O  0.22653786  0.58317697  0.45260153    -0.98750
Zr1545     Zr  0.19564409  0.59471535  0.35029780     2.21500
Zr1546     Zr  0.13094925  0.56082926  0.43026909     2.11130
O1547       O  0.14663029  0.53557368  0.40572889    -2.47440
O1548       O  0.18003909  0.55356217  0.36794136    -0.79460
O1549       O  0.11680179  0.55446950  0.38256981    -0.71660
O1550       O  0.20924141  0.60022104  0.39848152    -2.32620
O1551       O  0.14897134  0.57159509  0.34143464    -2.28820
O1552       O  0.17723900  0.58407986  0.44080341    -0.73420
H1553       H  0.13973672  0.61209432  0.42292130     0.78580
H1554       H  0.22817626  0.60948123  0.40105570     0.79670
H1555       H  0.13893099  0.51821572  0.41115833     0.81890
H1556       H  0.14419695  0.56950157  0.32195549     0.79500
H1557       H  0.24319291  0.63953191  0.44749125     0.42530
H1558       H  0.21759211  0.57686963  0.46973759     0.41500
H1559       H  0.19015917  0.51107728  0.40011162     0.41180
H1560       H  0.12218370  0.97946166  0.36730027     0.39110
H1561       H  0.08908145  0.51843285  0.32400735     0.42250
H1562       H  0.10170857  0.57118436  0.31651106     0.37030
H1563       H  0.14872703  0.64894253  0.37991138     0.43150
H1564       H  0.17899093  0.66434951  0.42702123     0.39560
H1565       H  0.10388586  0.97644759  0.34173364     0.44480
H1566       H  0.09003181  0.58725995  0.33095622     0.43200
H1567       H  0.20597568  0.67577361  0.44403955     0.43340
H1568       H  0.23846937  0.57597000  0.45079030     0.43700
O1569       O  0.03617537  0.67642043  0.20832479    -0.75170
O1570       O  0.04345516  0.64479335  0.22256276    -0.54080
C1571       C  0.03138720  0.65795198  0.22362278     0.78560
O1572       O  0.02915933  0.64538470  0.07607075    -0.59770
O1573       O  0.06573327  0.68141257  0.06443238    -0.52800
C1574       C  0.04202956  0.66223741  0.05949375     0.70570
O1575       O  0.00653605  0.60193965  0.14770107    -0.74330
O1576       O  0.02643673  0.59971781  0.18702050    -0.54890
C1577       C  0.00642779  0.59159561  0.16972889     0.76570
O1578       O  0.07107871  0.73234296  0.14201915    -0.59470
O1579       O  0.09101263  0.73139240  0.10236366    -0.52590
C1580       C  0.08025597  0.74092120  0.11864448     0.73170
Zr1581     Zr  0.06676786  0.69908590  0.17250952     2.54710
O1582       O  0.03175064  0.70948347  0.17673959    -0.80040
O1583       O  0.09191161  0.73472055  0.20797396    -0.93460
Zr1584     Zr  0.03537173  0.63547581  0.12101879     2.64680
O1585       O  0.49479294  0.63715142  0.12218343    -0.98410
O1586       O  0.01512573  0.59533921  0.09053159    -0.80470
O1587       O  0.04389865  0.65317594  0.16722147    -0.83830
O1588       O  0.05695204  0.68116526  0.12553744    -2.18540
O1589       O  0.16256393  0.73408656  0.14361457    -0.67220
O1590       O  0.14051434  0.73228889  0.10358046    -0.51790
C1591       C  0.16108045  0.74244488  0.12019710     0.71550
O1592       O  0.10025014  0.60358315  0.14960890    -0.60130
O1593       O  0.07572184  0.60004292  0.18656981    -0.52110
C1594       C  0.08874423  0.59262728  0.17080473     0.73350
O1595       O  0.12009498  0.64816363  0.07864967    -0.71520
O1596       O  0.11635056  0.68208971  0.06537263    -0.50200
C1597       C  0.12262465  0.66425367  0.06153060     0.74730
O1598       O  0.14232074  0.67729644  0.21035968    -0.66850
O1599       O  0.10323490  0.64548162  0.22397568    -0.54050
C1600       C  0.12858813  0.65870229  0.22551505     0.73120
Zr1601     Zr  0.13428304  0.70014820  0.17390196     2.77540
O1602       O  0.17990111  0.71066998  0.18006694    -0.97600
O1603       O  0.14462132  0.73553639  0.20923573    -0.78420
Zr1604     Zr  0.10290260  0.63657845  0.12253197     2.70070
O1605       O  0.14594564  0.63995892  0.12391979    -0.79670
O1606       O  0.08201993  0.59619722  0.09242234    -0.98750
Zr1607     Zr  0.07018947  0.63839211  0.18833723     2.21500
Zr1608     Zr  0.09759043  0.69455397  0.10440276     2.11130
O1609       O  0.12588719  0.68236808  0.12687923    -2.47440
O1610       O  0.11167622  0.65423990  0.16873966    -0.79460
O1611       O  0.10732737  0.71351491  0.15152535    -0.71660
O1612       O  0.06154846  0.62069903  0.14147574    -2.32620
O1613       O  0.09339782  0.68521436  0.19525251    -2.28820
O1614       O  0.07532487  0.64860487  0.09969910    -0.73420
H1615       H  0.04632638  0.68673169  0.11609455     0.78580
H1616       H  0.05234783  0.60198371  0.13987300     0.79670
H1617       H  0.14220200  0.68844417  0.11791425     0.81890
H1618       H  0.09626175  0.69102183  0.21472071     0.79500
H1619       H  0.02734829  0.58852274  0.09201126     0.42530
H1620       H  0.07480969  0.60005774  0.07608800     0.41500
H1621       H  0.15586407  0.65296065  0.13974751     0.41180
H1622       H  0.18490784  0.70777859  0.16135952     0.39110
H1623       H  0.14899571  0.75059232  0.19876978     0.42250
H1624       H  0.08124085  0.72974898  0.22429846     0.37030
H1625       H  0.01824160  0.69768971  0.16214766     0.43150
H1626       H  0.49871613  0.65325179  0.11398266     0.39560
H1627       H  0.19005968  0.72968350  0.18475124     0.44480
H1628       H  0.09036455  0.74934024  0.20179171     0.43200
H1629       H  0.48257976  0.62299740  0.10830035     0.43340
H1630       H  0.09679595  0.59424686  0.08560625     0.43700
O1631       O  0.32204979  0.96167583  0.18640310    -0.75170
O1632       O  0.36054281  0.96346325  0.19919690    -0.54080
C1633       C  0.34300779  0.97024125  0.20234754     0.78560
O1634       O  0.26908998  0.83666278  0.11992118    -0.59770
O1635       O  0.26308462  0.84935349  0.07849281    -0.52800
C1636       C  0.25604256  0.83302769  0.09708802     0.70570
O1637       O  0.32870882  0.87010587  0.19066751    -0.74330
O1638       O  0.36153796  0.91137828  0.20325261    -0.54890
C1639       C  0.34789937  0.88732854  0.20709131     0.76570
O1640       O  0.26283250  0.91744884  0.11479974    -0.59470
O1641       O  0.26180760  0.89614221  0.07314972    -0.52590
C1642       C  0.25159137  0.90498145  0.09127894     0.73170
Zr1643     Zr  0.30333831  0.93338872  0.14313371     2.54710
O1644       O  0.26810038  0.91736628  0.17470739    -0.80040
O1645       O  0.30025440  0.97161518  0.13546815    -0.93460
Zr1646     Zr  0.30742015  0.86973578  0.14687793     2.64680
O1647       O  0.27254523  0.85713294  0.17878697    -0.98410
O1648       O  0.30750244  0.82897894  0.14592175    -0.80470
O1649       O  0.32020740  0.91165214  0.16824781    -0.83830
O1650       O  0.28955911  0.89097119  0.12265376    -2.18540
O1651       O  0.33066845  0.95857759  0.06461028    -0.67220
O1652       O  0.31314895  0.92179026  0.03686308    -0.51790
C1653       C  0.32534736  0.94694644  0.04031275     0.71550
O1654       O  0.40353961  0.90673975  0.13092235    -0.60130
O1655       O  0.40562251  0.93253814  0.16916053    -0.52110
C1656       C  0.41430243  0.92016020  0.15415545     0.73350
O1657       O  0.34025976  0.85850948  0.06718779    -0.71520
O1658       O  0.31152376  0.86506844  0.04222747    -0.50200
C1659       C  0.32559081  0.85402692  0.04537580     0.74730
O1660       O  0.40008743  0.99326661  0.12812650    -0.66850
O1661       O  0.40392258  0.97782041  0.16825728    -0.54050
C1662       C  0.41131343  0.99570300  0.15206909     0.73120
Zr1663     Zr  0.36383836  0.96056766  0.09615971     2.77540
O1664       O  0.39505108  0.96906959  0.06049995    -0.97600
O1665       O  0.37406570  0.00510596  0.09346594    -0.78420
Zr1666     Zr  0.36683786  0.89685938  0.09856691     2.70070
O1667       O  0.39641885  0.91738934  0.06243807    -0.79670
O1668       O  0.38660631  0.86933204  0.09383093    -0.98750
Zr1669     Zr  0.36635944  0.93548186  0.16445530     2.21500
Zr1670     Zr  0.30209961  0.89303521  0.07560557     2.11130
O1671       O  0.34935968  0.91816751  0.07374887    -2.47440
O1672       O  0.38206499  0.93936290  0.11934362    -0.79460
O1673       O  0.31723611  0.93603703  0.09748431    -0.71660
O1674       O  0.35332107  0.89296015  0.14424006    -2.32620
O1675       O  0.34944545  0.95805477  0.14120014    -2.28820
O1676       O  0.32057879  0.87219159  0.10076897    -0.73420
H1677       H  0.27070165  0.88095296  0.12320168     0.78580
H1678       H  0.36115273  0.88477166  0.15403717     0.79670
H1679       H  0.35406626  0.91884719  0.05479947     0.81890
H1680       H  0.35588732  0.97544735  0.14968947     0.79500
H1681       H  0.31804420  0.82926145  0.13014293     0.42530
H1682       H  0.37295489  0.85215453  0.09876033     0.41500
H1683       H  0.41334393  0.92995664  0.07253182     0.41180
H1684       H  0.38435109  0.96266791  0.04278287     0.39110
H1685       H  0.36129018  0.00693681  0.10508491     0.42250
H1686       H  0.31850545  0.98624838  0.13860021     0.37030
H1687       H  0.27420121  0.91057433  0.18931314     0.43150
H1688       H  0.25866443  0.85883116  0.16899241     0.39560
H1689       H  0.40486332  0.98816436  0.06052201     0.44480
H1690       H  0.29104031  0.97387216  0.15137379     0.43200
H1691       H  0.26511227  0.83821849  0.17911029     0.43340
H1692       H  0.38829065  0.86677277  0.07378795     0.43700
C1693       C  0.43429715  0.52088199  0.16169176    -0.05350
C1694       C  0.45571881  0.52210169  0.17653015    -0.32770
C1695       C  0.47901898  0.54584968  0.18260505     0.36480
C1696       C  0.48098504  0.56843261  0.17344657    -0.05700
C1697       C  0.45833131  0.56745296  0.16200164    -0.32670
C1698       C  0.43528140  0.54392968  0.15574721     0.36380
H1699       H  0.45490509  0.00450653  0.18207670     0.16750
O1700       O  0.00017194  0.54637930  0.19547379    -0.60170
H1701       H  0.45905972  0.58488034  0.15596400     0.16770
O1702       O  0.41390005  0.54362937  0.14355361    -0.60270
H1703       H  0.41803316  0.54663474  0.12404761     0.43760
H1704       H  0.99911204  0.55051731  0.21536325     0.43720
C1705       C  0.18476887  0.76516846  0.11119302    -0.05350
C1706       C  0.20752578  0.76376005  0.10657494    -0.32770
C1707       C  0.23021105  0.78510515  0.09826892     0.36480
C1708       C  0.23052584  0.80844865  0.09438109    -0.05700
C1709       C  0.20728276  0.80938676  0.09764084    -0.32670
C1710       C  0.18453903  0.78797074  0.10593296     0.36380
H1711       H  0.20785889  0.74618217  0.10984184     0.16750
O1712       O  0.25248798  0.78341316  0.09500947    -0.60170
H1713       H  0.20734016  0.82739360  0.09587961     0.16770
O1714       O  0.16259778  0.78999763  0.11024833    -0.60270
H1715       H  0.16453710  0.79676631  0.12990721     0.43760
H1716       H  0.26005358  0.78533548  0.11397022     0.43720
C1717       C  0.14248150  0.65040676  0.24494207    -0.05350
C1718       C  0.16420504  0.66832909  0.26270728    -0.32770
C1719       C  0.17510520  0.65977101  0.28277362     0.36480
C1720       C  0.16516488  0.63301192  0.28441976    -0.05700
C1721       C  0.14488719  0.61539519  0.26533943    -0.32670
C1722       C  0.13328742  0.62373955  0.24632359     0.36380
H1723       H  0.17166586  0.68890057  0.26219039     0.16750
O1724       O  0.19399314  0.67759847  0.30196348    -0.60170
H1725       H  0.13635701  0.59475642  0.26674787     0.16770
O1726       O  0.11244924  0.60540514  0.22942936    -0.60270
H1727       H  0.09709294  0.59893503  0.24100327     0.43760
H1728       H  0.21093456  0.68082312  0.29471713     0.43720
C1729       C  0.13214760  0.65963572  0.03540344    -0.05350
C1730       C  0.11313771  0.64187836  0.01529227    -0.32770
C1731       C  0.11906878  0.62702126  0.49628331     0.36480
C1732       C  0.14452231  0.63026178  0.49676454    -0.05700
C1733       C  0.16408562  0.64947109  0.01557742    -0.32670
C1734       C  0.15792738  0.66379677  0.03511489     0.36380
H1735       H  0.09301862  0.63787140  0.01584535     0.16750
O1736       O  0.09989832  0.60956389  0.47712517    -0.60170
H1737       H  0.18393004  0.65265660  0.01579136     0.16770
O1738       O  0.17655264  0.68006054  0.05543638    -0.60270
H1739       H  0.18372924  0.69766922  0.04936984     0.43760
H1740       H  0.08959879  0.59377106  0.48669643     0.43720
C1741       C  0.12324025  0.95824832  0.01477459    -0.05350
C1742       C  0.15019562  0.97505514  0.01219972    -0.32770
C1743       C  0.15895995  0.49551745  0.99522206     0.36480
C1744       C  0.14066741  0.50005116  0.48107780    -0.05700
C1745       C  0.11374080  0.98231447  0.48247101    -0.32670
C1746       C  0.10506071  0.96157041  0.99888596     0.36380
H1747       H  0.16451612  0.97362265  0.02511932     0.16750
O1748       O  0.18541820  0.51227006  0.49455307    -0.60170
H1749       H  0.09924811  0.98484403  0.47121126     0.16770
O1750       O  0.07861278  0.94622481  0.00155578    -0.60270
H1751       H  0.07305150  0.93083076  0.98809698     0.43760
H1752       H  0.19153250  0.50385208  0.98050435     0.43720
C1753       C  0.14975837  0.98800320  0.23424652    -0.05350
C1754       C  0.14884865  0.97825670  0.25955715    -0.32770
C1755       C  0.15950706  0.49495116  0.28375103     0.36480
C1756       C  0.17050123  0.52211657  0.28312721    -0.05700
C1757       C  0.17297179  0.53189607  0.25729870    -0.32670
C1758       C  0.16288031  0.51499184  0.23293159     0.36380
H1759       H  0.13902327  0.95749482  0.26070858     0.16750
O1760       O  0.15766805  0.98418874  0.30806373    -0.60170
H1761       H  0.18138515  0.55251882  0.25606282     0.16770
O1762       O  0.16427212  0.52494317  0.20818567    -0.60270
H1763       H  0.18030580  0.52631228  0.20023537     0.43760
H1764       H  0.17465561  0.98470720  0.31112189     0.43720
C1765       C  0.09308161  0.52340651  0.17042148    -0.05350
C1766       C  0.07018357  0.52316974  0.17866619    -0.32770
C1767       C  0.06872480  0.54597633  0.18073042     0.36480
C1768       C  0.09086053  0.56962881  0.17598466    -0.05700
C1769       C  0.11459549  0.57012780  0.17071974    -0.32670
C1770       C  0.11574473  0.54724241  0.16771046     0.36380
H1771       H  0.05284735  0.00497448  0.18148312     0.16750
O1772       O  0.04503063  0.54449411  0.18477105    -0.60170
H1773       H  0.13196146  0.58819764  0.16723756     0.16770
O1774       O  0.13877406  0.54821776  0.16094933    -0.60270
H1775       H  0.14956770  0.55343576  0.17859715     0.43760
H1776       H  0.03630080  0.54068225  0.16603318     0.43720
C1777       C  0.07649210  0.80851265  0.09830391    -0.05350
C1778       C  0.05490356  0.78749829  0.10883960    -0.32770
C1779       C  0.05572816  0.76535809  0.11492747     0.36480
C1780       C  0.07815025  0.76328869  0.10983473    -0.05700
C1781       C  0.09878984  0.78314899  0.09676735    -0.32670
C1782       C  0.09820770  0.80575610  0.09128011     0.36380
H1783       H  0.03785056  0.78901621  0.11422389     0.16750
O1784       O  0.03445058  0.74583107  0.12596892    -0.60170
H1785       H  0.11604493  0.78178638  0.09216461     0.16770
O1786       O  0.11989695  0.82586911  0.08154447    -0.60270
H1787       H  0.11671033  0.82312292  0.06119342     0.43760
H1788       H  0.03577862  0.75189042  0.14578508     0.43720
C1789       C  0.17612707  0.89943523  0.09029179    -0.05350
C1790       C  0.19231344  0.91023226  0.06842704    -0.32770
C1791       C  0.21641452  0.91043013  0.06676058     0.36480
C1792       C  0.22417129  0.89936429  0.08685087    -0.05700
C1793       C  0.20688111  0.88682141  0.10722368    -0.32670
C1794       C  0.18318440  0.88681817  0.10906647     0.36380
H1795       H  0.18726645  0.92017682  0.05392269     0.16750
O1796       O  0.23296553  0.92302815  0.04673304    -0.60170
H1797       H  0.21258359  0.87833500  0.12293970     0.16770
O1798       O  0.16786948  0.87601779  0.13059920    -0.60270
H1799       H  0.15646782  0.85742333  0.12409114     0.43760
H1800       H  0.24392115  0.94124633  0.05482310     0.43720
C1801       C  0.48757493  0.92426907  0.16978047    -0.05350
C1802       C  0.46429103  0.90178406  0.17477161    -0.32770
C1803       C  0.44001671  0.90059429  0.17133834     0.36480
C1804       C  0.43908059  0.92225218  0.16343203    -0.05700
C1805       C  0.46237132  0.94524920  0.16039606    -0.32670
C1806       C  0.48664139  0.94632867  0.16323156     0.36380
H1807       H  0.46478824  0.88448729  0.17905622     0.16750
O1808       O  0.41730105  0.87792282  0.17449491    -0.60170
H1809       H  0.46160741  0.96173549  0.15358598     0.16770
O1810       O  0.50883209  0.96752277  0.15567515    -0.60270
H1811       H  0.50942400  0.98284347  0.16589838     0.43760
H1812       H  0.41276293  0.86767770  0.15622021     0.43720
C1813       C  0.48373436  0.62922376  0.49424514    -0.05350
C1814       C  0.48737675  0.65147101  0.01043733    -0.32770
C1815       C  0.00879491  0.66503639  0.02997548     0.36480
C1816       C  0.02750592  0.65704844  0.03284916    -0.05700
C1817       C  0.02483100  0.63598782  0.01543017    -0.32670
C1818       C  0.50309343  0.62191282  0.49662472     0.36380
H1819       H  0.47303961  0.65775185  0.00870054     0.16750
O1820       O  0.01001296  0.68460074  0.04778793    -0.60170
H1821       H  0.03855204  0.62903081  0.01805096     0.16770
O1822       O  0.50112273  0.60107639  0.48057232    -0.60270
H1823       H  0.99336853  0.58647006  0.49226662     0.43760
H1824       H  0.52250293  0.70083742  0.03997376     0.43720
C1825       C  0.00948323  0.65011845  0.24278689    -0.05350
C1826       C  0.00514359  0.66853466  0.25816577    -0.32770
C1827       C  0.48559597  0.66081987  0.27763708     0.36480
C1828       C  0.46932327  0.63433387  0.28112347    -0.05700
C1829       C  0.47262752  0.61608162  0.26450478    -0.32670
C1830       C  0.49241889  0.62364754  0.24579237     0.36380
H1831       H  0.01783218  0.68898324  0.25619309     0.16750
O1832       O  0.48392255  0.67933901  0.29451928    -0.60170
H1833       H  0.46093481  0.59568297  0.26748223     0.16770
O1834       O  0.49545193  0.60487084  0.23115250    -0.60270
H1835       H  0.47878393  0.59421206  0.21974735     0.43760
H1836       H  0.96987583  0.68136518  0.28553695     0.43720
C1837       C  0.35747962  0.50166670  0.47741228    -0.05350
C1838       C  0.33452887  0.97729084  0.47062798    -0.32770
C1839       C  0.32371158  0.95866095  0.49018644     0.36480
C1840       C  0.33549642  0.96439683  0.01722300    -0.05700
C1841       C  0.35810709  0.98891161  0.02358312    -0.32670
C1842       C  0.36910920  0.50706796  0.00430084     0.36380
H1843       H  0.32522426  0.97249581  0.45000032     0.16750
O1844       O  0.30162378  0.93523946  0.48269628    -0.60170
H1845       H  0.36785766  0.99420856  0.04386496     0.16770
O1846       O  0.39088445  0.53063215  0.01243207    -0.60270
H1847       H  0.40591678  0.52743786  0.01197626     0.43760
H1848       H  0.28670741  0.93782599  0.48758058     0.43720
C1849       C  0.35931696  0.52703319  0.27117255    -0.05350
C1850       C  0.33608105  0.00274342  0.26916636    -0.32770
C1851       C  0.33021485  0.98436905  0.24650365     0.36480
C1852       C  0.34777830  0.98994711  0.22544145    -0.05700
C1853       C  0.37053444  0.51449063  0.22682131    -0.32670
C1854       C  0.37621095  0.53309488  0.24929298     0.36380
H1855       H  0.32304699  0.99748520  0.28596240     0.16750
O1856       O  0.30798108  0.96050789  0.24586147    -0.60170
H1857       H  0.38422134  0.51904330  0.21066519     0.16770
O1858       O  0.39950261  0.55611559  0.25087673    -0.60270
H1859       H  0.39544570  0.56814263  0.24182588     0.43760
H1860       H  0.31351353  0.94953549  0.25496774     0.43720
C1861       C  0.06313432  0.58115482  0.42453931    -0.05350
C1862       C  0.06328516  0.60366457  0.41815631    -0.32770
C1863       C  0.04040285  0.60499749  0.41836765     0.36480
C1864       C  0.01685873  0.58349629  0.42498429    -0.05700
C1865       C  0.01762279  0.56275377  0.43577122    -0.32670
C1866       C  0.04079537  0.56139780  0.43550614     0.36380
H1867       H  0.08090136  0.61978854  0.41142662     0.16750
O1868       O  0.04100004  0.62705268  0.41116341    -0.60170
H1869       H  0.49993225  0.54680564  0.44247340     0.16770
O1870       O  0.04120490  0.54045636  0.44477833    -0.60270
H1871       H  0.02693521  0.52493068  0.43390326     0.43760
H1872       H  0.04343123  0.62717298  0.39104859     0.43720
C1873       C  0.31133785  0.57290997  0.35440892    -0.05350
C1874       C  0.29888052  0.56692380  0.37910593    -0.32770
C1875       C  0.27643888  0.56851033  0.38331293     0.36480
C1876       C  0.26536458  0.57590388  0.36220876    -0.05700
C1877       C  0.27812253  0.58237289  0.33739527    -0.32670
C1878       C  0.30122366  0.58121880  0.33355304     0.36380
H1879       H  0.30706673  0.56168287  0.39585651     0.16750
O1880       O  0.26628284  0.56382994  0.40879170    -0.60170
H1881       H  0.27021898  0.58826805  0.32098282     0.16770
O1882       O  0.31322476  0.58743470  0.30917019    -0.60270
H1883       H  0.32455300  0.60656293  0.31139254     0.43760
H1884       H  0.25676904  0.54470364  0.40885135     0.43720
C1885       C  0.46968986  0.82387992  0.48160797    -0.05350
C1886       C  0.47392699  0.84714465  0.49533757    -0.32770
C1887       C  0.99565826  0.86206100  0.01374786     0.36480
C1888       C  0.01298767  0.85304992  0.02088357    -0.05700
C1889       C  0.00856789  0.82932388  0.00765729    -0.32670
C1890       C  0.48741668  0.81509056  0.48760254     0.36380
H1891       H  0.46154961  0.85504259  0.48989904     0.16750
O1892       O  0.00003513  0.88591061  0.02447669    -0.60170
H1893       H  0.02132887  0.82182284  0.01288357     0.16770
O1894       O  0.48472805  0.79313193  0.47331476    -0.60270
H1895       H  0.47186241  0.77862296  0.48326773     0.43760
H1896       H  0.01299814  0.89844377  0.01268758     0.43720
C1897       C  0.02007618  0.87574314  0.23228963    -0.05350
C1898       C  0.50554211  0.88807893  0.23860081    -0.32770
C1899       C  0.48650145  0.87906712  0.25790603     0.36480
C1900       C  0.48212262  0.85765574  0.27214066    -0.05700
C1901       C  0.49612332  0.84476003  0.26514682    -0.32670
C1902       C  0.01475945  0.85347022  0.24513396     0.36380
H1903       H  0.00861975  0.90464059  0.22812188     0.16750
O1904       O  0.47251763  0.89161707  0.26278803    -0.60170
H1905       H  0.49313786  0.82826001  0.27565350     0.16770
O1906       O  0.02850741  0.84084261  0.23926981    -0.60270
H1907       H  0.01698852  0.82607031  0.22556216     0.43760
H1908       H  0.45679723  0.88241374  0.24971003     0.43720
C1909       C  0.42414719  0.93844767  0.37591851    -0.05350
C1910       C  0.44620294  0.96049086  0.38879128    -0.32770
C1911       C  0.44411902  0.98184483  0.39880977     0.36480
C1912       C  0.41972362  0.98065677  0.39620356    -0.05700
C1913       C  0.39757418  0.95811045  0.38418969    -0.32670
C1914       C  0.39982548  0.93729907  0.37347147     0.36380
H1915       H  0.46463869  0.96074518  0.39189500     0.16750
O1916       O  0.46606682  0.50406253  0.40974257    -0.60170
H1917       H  0.37877879  0.95728551  0.38169908     0.16770
O1918       O  0.37786574  0.91527568  0.36198950    -0.60270
H1919       H  0.37868033  0.91641797  0.34178578     0.43760
H1920       H  0.46783466  0.00134193  0.42931147     0.43720
C1921       C  0.40955172  0.72570156  0.37898659    -0.05350
C1922       C  0.38842595  0.70425640  0.38911724    -0.32770
C1923       C  0.38674118  0.68002378  0.38572618     0.36480
C1924       C  0.40625409  0.67727013  0.37203794    -0.05700
C1925       C  0.42723969  0.69851696  0.36194528    -0.32670
C1926       C  0.42910210  0.72268056  0.36539263     0.36380
H1927       H  0.37320067  0.70624328  0.39938422     0.16750
O1928       O  0.36649040  0.65932578  0.39655035    -0.60170
H1929       H  0.44287449  0.69662263  0.35249670     0.16770
O1930       O  0.45087301  0.74353955  0.35672704    -0.60270
H1931       H  0.44841123  0.74147543  0.33630684     0.43760
H1932       H  0.35305294  0.65004692  0.38102790     0.43720
C1933       C  0.01795040  0.92990156  0.38057953    -0.05350
C1934       C  0.01597961  0.95239496  0.38031057    -0.32770
C1935       C  0.03638601  0.97631890  0.39173441     0.36480
C1936       C  0.05897129  0.97779259  0.40374488    -0.05700
C1937       C  0.06043397  0.95529296  0.40557504    -0.32670
C1938       C  0.04030488  0.93145726  0.39376209     0.36380
H1939       H  0.99892928  0.95168324  0.37049321     0.16750
O1940       O  0.03565925  0.49854271  0.38805197    -0.60170
H1941       H  0.07836964  0.95661218  0.41380414     0.16770
O1942       O  0.04344626  0.91021470  0.39395591    -0.60270
H1943       H  0.05199120  0.90975688  0.37667814     0.43760
H1944       H  0.01891392  0.49593945  0.39529087     0.43720
C1945       C  0.26616122  0.68037616  0.37473109    -0.05350
C1946       C  0.26568532  0.70350388  0.38033847    -0.32770
C1947       C  0.28896639  0.72719432  0.38352479     0.36480
C1948       C  0.31312250  0.72788844  0.38157092    -0.05700
C1949       C  0.31375159  0.70484553  0.37580006    -0.32670
C1950       C  0.29029714  0.68104496  0.37211024     0.36380
H1951       H  0.24717465  0.70309645  0.38279779     0.16750
O1952       O  0.28799211  0.74960587  0.38874268    -0.60170
H1953       H  0.33235893  0.70537964  0.37380498     0.16770
O1954       O  0.29119235  0.65854614  0.36763113    -0.60270
H1955       H  0.29062749  0.65524768  0.34729138     0.43760
H1956       H  0.29008887  0.75329877  0.40911835     0.43720
C1957       C  0.32723574  0.83613918  0.02279340    -0.05350
C1958       C  0.34180411  0.82365196  0.02835625    -0.32770
C1959       C  0.35142581  0.81386660  0.00704753     0.36480
C1960       C  0.34585894  0.81548138  0.47941645    -0.05700
C1961       C  0.32805190  0.82432410  0.47388936    -0.32670
C1962       C  0.31901234  0.83477505  0.49510760     0.36380
H1963       H  0.34788041  0.82346980  0.04940110     0.16750
O1964       O  0.36841708  0.80530663  0.01356471    -0.60170
H1965       H  0.32344397  0.82583243  0.45271257     0.16770
O1966       O  0.30459907  0.84606874  0.48818817    -0.60270
H1967       H  0.28599904  0.83212572  0.48808605     0.43760
H1968       H  0.38600733  0.82111049  0.01625697     0.43720
C1969       C  0.37256016  0.86160210  0.27594273    -0.05350
C1970       C  0.39017153  0.88441560  0.26451809    -0.32770
C1971       C  0.38228337  0.89295653  0.24245974     0.36480
C1972       C  0.35604950  0.87889719  0.23130600    -0.05700
C1973       C  0.33831998  0.85598477  0.24247639    -0.32670
C1974       C  0.34634075  0.84726493  0.26457645     0.36380
H1975       H  0.41046671  0.89582613  0.27246795     0.16750
O1976       O  0.40072047  0.91489744  0.23164555    -0.60170
H1977       H  0.31816128  0.84475112  0.23405741     0.16770
O1978       O  0.32828101  0.82486645  0.27491137    -0.60270
H1979       H  0.32909212  0.81073876  0.26365479     0.43760
H1980       H  0.40965651  0.90890356  0.21836514     0.43720
O1981       O  0.36611058  0.83302416  0.81046453    -0.75170
O1982       O  0.40667761  0.86796937  0.80751423    -0.54080
C1983       C  0.38229424  0.85356743  0.79945727     0.78560
O1984       O  0.37346400  0.83925492  0.94708167    -0.59770
O1985       O  0.37062787  0.80010875  0.95044623    -0.52800
C1986       C  0.36447514  0.81784370  0.95773170     0.70570
O1987       O  0.41321019  0.90140393  0.89492204    -0.74330
O1988       O  0.43233483  0.90711826  0.85365147    -0.54890
C1989       C  0.42363811  0.91426013  0.87448654     0.76570
O1990       O  0.33841780  0.76706735  0.86354382    -0.59470
O1991       O  0.35513218  0.75868759  0.90178718    -0.52590
C1992       C  0.33726008  0.75281751  0.88251121     0.73170
Zr1993     Zr  0.36805867  0.80848025  0.84733980     2.54710
O1994       O  0.32767096  0.80979150  0.85339035    -0.80040
O1995       O  0.34963081  0.77683363  0.80697603    -0.93460
Zr1996     Zr  0.40082322  0.86068921  0.91135112     2.64680
O1997       O  0.36369395  0.86822858  0.91017815    -0.98410
O1998       O  0.42064913  0.89046222  0.95292333    -0.80470
O1999       O  0.39273960  0.85295803  0.86294983    -0.83830
O2000       O  0.37444724  0.81629618  0.89606120    -2.18540
O2001       O  0.41965832  0.76332829  0.85932424    -0.67220
O2002       O  0.40240371  0.75833101  0.90177563    -0.51790
C2003       C  0.41042354  0.75070575  0.88036651     0.71550
O2004       O  0.49439058  0.88388094  0.87434132    -0.60130
O2005       O  0.47713562  0.90520063  0.85499694    -0.52110
C2006       C  0.49567261  0.90504286  0.86889523     0.73350
O2007       O  0.46854970  0.82630142  0.93486001    -0.71520
O2008       O  0.42897915  0.80514327  0.95310677    -0.50200
C2009       C  0.45443704  0.81647720  0.95489917     0.74730
O2010       O  0.45782279  0.82809802  0.80483944    -0.66850
O2011       O  0.45826485  0.86643151  0.80563663    -0.54050
C2012       C  0.46470167  0.85004484  0.79547557     0.73120
Zr2013     Zr  0.43257607  0.80454116  0.84269952     2.77540
O2014       O  0.47290729  0.80242243  0.84192098    -0.97600
O2015       O  0.41180162  0.77304285  0.80257631    -0.78420
Zr2016     Zr  0.46532061  0.85614061  0.90689951     2.70070
O2017       O  0.50953209  0.86552280  0.92017160    -0.79670
O2018       O  0.47931102  0.89143525  0.94348916    -0.98750
Zr2019     Zr  0.43445705  0.86819202  0.84451007     2.21500
Zr2020     Zr  0.39811308  0.79660050  0.91275267     2.11130
O2021       O  0.43923984  0.81139664  0.89145157    -2.47440
O2022       O  0.45902763  0.84865460  0.85819195    -0.79460
O2023       O  0.39181992  0.78922564  0.86320945    -0.71660
O2024       O  0.44248718  0.87710266  0.89349929    -2.32620
O2025       O  0.40893361  0.82393292  0.82713805    -2.28820
O2026       O  0.42456427  0.84147851  0.92796591    -0.73420
H2027       H  0.35721973  0.80910928  0.90318926     0.78580
H2028       H  0.45301712  0.89541835  0.89922367     0.79670
H2029       H  0.44722788  0.80129853  0.89591839     0.81890
H2030       H  0.40681986  0.82184472  0.80722881     0.79500
H2031       H  0.43536562  0.90628472  0.94652663     0.42530
H2032       H  0.46476015  0.88525758  0.95604064     0.41500
H2033       H  0.01364824  0.85586677  0.90551097     0.41180
H2034       H  0.47420024  0.79586448  0.85958659     0.39110
H2035       H  0.39297325  0.76334614  0.80639548     0.42250
H2036       H  0.36128974  0.78524730  0.79205507     0.37030
H2037       H  0.33346756  0.82848235  0.85656494     0.43150
H2038       H  0.34791815  0.85073359  0.90847769     0.39560
H2039       H  0.46910829  0.78811294  0.82760636     0.44480
H2040       H  0.33300543  0.77631940  0.80176859     0.43200
H2041       H  0.36376729  0.87575159  0.92905116     0.43340
H2042       H  0.49386884  0.89157481  0.95415535     0.43700
O2043       O  0.41570971  0.65169018  0.89738209    -0.75170
O2044       O  0.40295649  0.63865431  0.85152271    -0.54080
C2045       C  0.40816232  0.65416258  0.87354559     0.78560
O2046       O  0.49174154  0.59266876  0.89532366    -0.59770
O2047       O  0.47151594  0.56821288  0.93045200    -0.52800
C2048       C  0.49168174  0.58134350  0.91671045     0.70570
O2049       O  0.46943101  0.62116817  0.82436409    -0.74330
O2050       O  0.43154601  0.61945551  0.80918610    -0.54890
C2051       C  0.45581716  0.62529844  0.80681296     0.76570
O2052       O  0.45452947  0.62953361  0.96045669    -0.59470
O2053       O  0.45246191  0.59101711  0.96627352    -0.52590
C2054       C  0.46159705  0.61549368  0.97288692     0.73170
Zr2055     Zr  0.42688250  0.62338880  0.91938557     2.54710
O2056       O  0.46298852  0.66789807  0.92667157    -0.80040
O2057       O  0.40257787  0.63135729  0.95517840    -0.93460
Zr2058     Zr  0.46328463  0.60056015  0.86623591     2.64680
O2059       O  0.50127311  0.64382616  0.87580874    -0.98410
O2060       O  0.48666039  0.58511911  0.83664207    -0.80470
O2061       O  0.43873274  0.62197078  0.87278836    -0.83830
O2062       O  0.45275845  0.60372718  0.91201071    -2.18540
O2063       O  0.35544913  0.52490449  0.93985314    -0.67220
O2064       O  0.39554298  0.53328762  0.95702127    -0.51790
C2065       C  0.37018355  0.52114018  0.95672634     0.71550
O2066       O  0.36436824  0.52954144  0.81928803    -0.60130
O2067       O  0.38140672  0.56746761  0.80078560    -0.52110
C2068       C  0.36853320  0.54247391  0.79845653     0.73350
O2069       O  0.40820552  0.50606903  0.87458851    -0.71520
O2070       O  0.42709575  0.52066326  0.91826421    -0.50200
C2071       C  0.41828765  0.50404381  0.89696463     0.74730
O2072       O  0.33678223  0.55357121  0.86385816    -0.66850
O2073       O  0.35537896  0.58972839  0.84157297    -0.54050
C2074       C  0.33578194  0.57193762  0.85272932     0.73120
Zr2075     Zr  0.36248671  0.55596132  0.90521020     2.77540
O2076       O  0.31604064  0.52421894  0.90716616    -0.97600
O2077       O  0.34894532  0.58109869  0.93540545    -0.78420
Zr2078     Zr  0.39824645  0.53386211  0.85141459     2.70070
O2079       O  0.36719319  0.98819510  0.83838550    -0.79670
O2080       O  0.42063008  0.52751046  0.81246505    -0.98750
Zr2081     Zr  0.39941837  0.59646135  0.84392846     2.21500
Zr2082     Zr  0.42739988  0.56114309  0.92568990     2.11130
O2083       O  0.38732371  0.53494069  0.89791972    -2.47440
O2084       O  0.37302322  0.55395606  0.85843635    -0.79460
O2085       O  0.40154451  0.58128358  0.93423653    -0.71660
O2086       O  0.42461508  0.57551412  0.83725543    -2.32620
O2087       O  0.38756145  0.59839777  0.89121395    -2.28820
O2088       O  0.43800551  0.55799249  0.87887997    -0.73420
H2089       H  0.46953996  0.61361559  0.92218686     0.78580
H2090       H  0.42846720  0.57427590  0.81817722     0.79670
H2091       H  0.37799118  0.51730223  0.90263609     0.81890
H2092       H  0.37683206  0.60646205  0.89280653     0.79500
H2093       H  0.47317525  0.57262715  0.82241457     0.42530
H2094       H  0.42449525  0.51393844  0.81748087     0.41500
H2095       H  0.35336387  0.48362305  0.85173277     0.41180
H2096       H  0.31485798  0.50710307  0.90374323     0.39110
H2097       H  0.35019448  0.57615394  0.95407210     0.42250
H2098       H  0.38992898  0.63464629  0.94509976     0.37030
H2099       H  0.47643436  0.66832722  0.91436875     0.43150
H2100       H  0.50619274  0.64537125  0.89568250     0.39560
H2101       H  0.31208982  0.52541280  0.92674192     0.44480
H2102       H  0.41544605  0.64844214  0.96478067     0.43200
H2103       H  0.01557727  0.64292535  0.86622070     0.43340
H2104       H  0.40677679  0.51884731  0.79728227     0.43700
O2105       O  0.00688493  0.90753458  0.64011726    -0.75170
O2106       O  0.03216736  0.93505868  0.67727816    -0.54080
C2107       C  0.01038190  0.92190890  0.66251081     0.78560
O2108       O  0.07091502  0.83846983  0.62598239    -0.59770
O2109       O  0.08620613  0.85052882  0.58365897    -0.52800
C2110       C  0.07807928  0.83427237  0.60234486     0.70570
O2111       O  0.04140210  0.86934140  0.69411687    -0.74330
O2112       O  0.05143670  0.91041908  0.70964208    -0.54890
C2113       C  0.03928725  0.88579026  0.71099976     0.76570
O2114       O  0.02234928  0.87512080  0.56417809    -0.59470
O2115       O  0.05564178  0.87047704  0.54666770    -0.52590
C2116       C  0.03193058  0.86687721  0.54527166     0.73170
Zr2117     Zr  0.03348321  0.89956046  0.60809163     2.54710
O2118       O  0.49040490  0.86085692  0.60726389    -0.80040
O2119       O  0.01645848  0.92123302  0.58094011    -0.93460
Zr2120     Zr  0.06603398  0.87062765  0.65385311     2.64680
O2121       O  0.02643024  0.82851705  0.65451782    -0.98410
O2122       O  0.08981467  0.86003223  0.68700758    -0.80470
O2123       O  0.04436676  0.89474340  0.65295569    -0.83830
O2124       O  0.05364038  0.87367967  0.60812755    -2.18540
O2125       O  0.11348108  0.96189056  0.55967098    -0.67220
O2126       O  0.10904350  0.92270452  0.54388210    -0.51790
C2127       C  0.11482125  0.94639325  0.54100516     0.71550
O2128       O  0.14650803  0.96343242  0.69226628    -0.60130
O2129       O  0.10946359  0.96157119  0.70901630    -0.52110
C2130       C  0.13432747  0.96985573  0.71021305     0.73350
O2131       O  0.15669589  0.91610740  0.62106328    -0.71520
O2132       O  0.13510335  0.89728235  0.57885533    -0.50200
C2133       C  0.15455145  0.90472465  0.59677824     0.74730
O2134       O  0.10064109  0.99662011  0.63790312    -0.66850
O2135       O  0.08158742  0.98050521  0.67763913    -0.54050
C2136       C  0.09204370  0.99869588  0.66166440     0.73120
Zr2137     Zr  0.10190417  0.96309756  0.60641604     2.77540
O2138       O  0.14610897  0.00022607  0.60693235    -0.97600
O2139       O  0.08239947  0.98327445  0.58040139    -0.78420
Zr2140     Zr  0.13442089  0.93317697  0.65048779     2.70070
O2141       O  0.17791380  0.96928995  0.64430139    -0.79670
O2142       O  0.15107641  0.91490319  0.68292091    -0.98750
Zr2143     Zr  0.07441804  0.93696011  0.67356718     2.21500
Zr2144     Zr  0.09238232  0.89492109  0.58283947     2.11130
O2145       O  0.12271737  0.93752340  0.60507538    -2.47440
O2146       O  0.11415836  0.95890713  0.65093543    -0.79460
O2147       O  0.07202169  0.92118178  0.58392767    -0.71660
O2148       O  0.09612077  0.91221011  0.67572368    -2.32620
O2149       O  0.06233797  0.94189614  0.62863415    -2.29180
O2150       O  0.10432113  0.89139025  0.62900835    -0.73420
H2151       H  0.04180853  0.85647539  0.59941340     0.78580
H2152       H  0.10055477  0.91121015  0.69460506     0.79670
H2153       H  0.13836601  0.94560087  0.59491884     0.81890
H2154       H  0.05371970  0.95210106  0.62927079     0.79500
H2155       H  0.07634118  0.84908883  0.69940016     0.42530
H2156       H  0.14446859  0.89685700  0.67487280     0.41500
H2157       H  0.17519805  0.98430829  0.64338233     0.41180
H2158       H  0.15609363  0.99392339  0.59574031     0.39110
H2159       H  0.07347811  0.97107067  0.56374082     0.42250
H2160       H  0.03072457  0.93135556  0.56889274     0.37030
H2161       H  0.49358976  0.84846898  0.61667681     0.43150
H2162       H  0.02044312  0.82222875  0.63489905     0.39560
H2163       H  0.14420010  0.51227928  0.59551824     0.44480
H2164       H  0.01596460  0.93442998  0.59414245     0.43200
H2165       H  0.03259057  0.81696081  0.66086232     0.43340
H2166       H  0.17023601  0.92374865  0.68066349     0.43700
O2167       O  0.14962414  0.61799307  0.82637361    -0.75170
O2168       O  0.18634113  0.61668072  0.81385144    -0.54080
C2169       C  0.16810257  0.62262235  0.81014952     0.78560
O2170       O  0.17226202  0.63011050  0.96296682    -0.59770
O2171       O  0.13566413  0.59162160  0.96930348    -0.52800
C2172       C  0.15148829  0.61614593  0.97547329     0.70570
O2173       O  0.23024653  0.65480452  0.89901954    -0.74330
O2174       O  0.23403392  0.63780257  0.85673903    -0.54890
C2175       C  0.24185505  0.65599310  0.87663890     0.76570
O2176       O  0.09661710  0.58873112  0.89509311    -0.59470
O2177       O  0.09312507  0.56632072  0.93217502    -0.52590
C2178       C  0.08564441  0.57831013  0.91691513     0.73170
Zr2179     Zr  0.13287485  0.59572427  0.86689021     2.54710
O2180       O  0.13126905  0.63577140  0.87131920    -0.80040
O2181       O  0.09475827  0.57385351  0.83410163    -0.93460
Zr2182     Zr  0.19288137  0.62465700  0.92227835     2.64680
O2183       O  0.19713325  0.66751181  0.92561788    -0.98410
O2184       O  0.22802660  0.63774412  0.95770870    -0.80470
O2185       O  0.17920821  0.61936107  0.87485690    -0.83830
O2186       O  0.14690949  0.60230892  0.91371363    -2.18540
O2187       O  0.09573416  0.50295534  0.88150918    -0.67220
O2188       O  0.09125506  0.51928528  0.92374684    -0.51790
C2189       C  0.08360216  0.50166681  0.90343685     0.71550
O2190       O  0.22856772  0.56610001  0.88761432    -0.60130
O2191       O  0.23344530  0.58811885  0.84999246    -0.52110
C2192       C  0.24084001  0.57677269  0.86655702     0.73350
O2193       O  0.16979720  0.52896828  0.95033029    -0.71520
O2194       O  0.13408434  0.53233459  0.96200398    -0.50200
C2195       C  0.14900374  0.52221690  0.96383439     0.74730
O2196       O  0.16655794  0.52801587  0.83098725    -0.66850
O2197       O  0.18648523  0.56402156  0.80931256    -0.54050
C2198       C  0.17524833  0.53918671  0.80912808     0.73120
Zr2199     Zr  0.13420391  0.53099409  0.85851342     2.77540
O2200       O  0.12246587  0.98572000  0.84899397    -0.97600
O2201       O  0.10596796  0.52127943  0.81703029    -0.78420
Zr2202     Zr  0.19254621  0.55914780  0.91566321     2.70070
O2203       O  0.20204859  0.52385018  0.91524158    -0.79670
O2204       O  0.22653786  0.58317697  0.95260153    -0.98750
Zr2205     Zr  0.19564410  0.59471535  0.85029780     2.21500
Zr2206     Zr  0.13094925  0.56082926  0.93026909     2.11130
O2207       O  0.14663029  0.53557368  0.90572889    -2.47440
O2208       O  0.18003909  0.55356217  0.86794136    -0.79460
O2209       O  0.11680179  0.55446951  0.88256981    -0.71660
O2210       O  0.20924141  0.60022104  0.89848152    -2.32620
O2211       O  0.14897134  0.57159510  0.84143464    -2.28820
O2212       O  0.17723900  0.58407986  0.94080341    -0.73420
H2213       H  0.13973672  0.61209432  0.92292130     0.78580
H2214       H  0.22817626  0.60948123  0.90105571     0.79670
H2215       H  0.13893099  0.51821573  0.91115833     0.81890
H2216       H  0.14419695  0.56950158  0.82195549     0.79500
H2217       H  0.24319291  0.63953192  0.94749125     0.42530
H2218       H  0.21759211  0.57686963  0.96973759     0.41500
H2219       H  0.19015916  0.51107728  0.90011162     0.41180
H2220       H  0.12218370  0.97946166  0.86730027     0.39110
H2221       H  0.08908145  0.51843285  0.82400735     0.42250
H2222       H  0.10170857  0.57118437  0.81651106     0.37030
H2223       H  0.14872703  0.64894254  0.87991139     0.43150
H2224       H  0.17899094  0.66434951  0.92702124     0.39560
H2225       H  0.10388586  0.97644759  0.84173364     0.44480
H2226       H  0.09003181  0.58725995  0.83095622     0.43200
H2227       H  0.20597569  0.67577362  0.94403956     0.43340
H2228       H  0.23846937  0.57597000  0.95079030     0.43700
O2229       O  0.03617537  0.67642043  0.70832479    -0.75170
O2230       O  0.04345516  0.64479334  0.72256276    -0.54080
C2231       C  0.03138720  0.65795198  0.72362278     0.78560
O2232       O  0.02915933  0.64538470  0.57607075    -0.59770
O2233       O  0.06573327  0.68141257  0.56443238    -0.52800
C2234       C  0.04202956  0.66223740  0.55949375     0.70570
O2235       O  0.00653606  0.60193965  0.64770107    -0.74330
O2236       O  0.02643673  0.59971781  0.68702050    -0.54890
C2237       C  0.00642780  0.59159561  0.66972889     0.76570
O2238       O  0.07107872  0.73234296  0.64201916    -0.59470
O2239       O  0.09101263  0.73139240  0.60236366    -0.52590
C2240       C  0.08025597  0.74092121  0.61864448     0.73170
Zr2241     Zr  0.06676787  0.69908590  0.67250952     2.54710
O2242       O  0.03175064  0.70948346  0.67673959    -0.80040
O2243       O  0.09191161  0.73472055  0.70797396    -0.93460
Zr2244     Zr  0.03537173  0.63547581  0.62101879     2.64680
O2245       O  0.49479295  0.63715141  0.62218343    -0.98410
O2246       O  0.01512573  0.59533921  0.59053159    -0.80470
O2247       O  0.04389865  0.65317594  0.66722148    -0.83830
O2248       O  0.05695204  0.68116526  0.62553744    -2.18540
O2249       O  0.16256393  0.73408656  0.64361457    -0.67220
O2250       O  0.14051434  0.73228889  0.60358046    -0.51790
C2251       C  0.16108045  0.74244488  0.62019710     0.71550
O2252       O  0.10025015  0.60358316  0.64960890    -0.60130
O2253       O  0.07572185  0.60004293  0.68656981    -0.52110
C2254       C  0.08874425  0.59262729  0.67080473     0.73350
O2255       O  0.12009498  0.64816363  0.57864967    -0.71520
O2256       O  0.11635056  0.68208971  0.56537263    -0.50200
C2257       C  0.12262465  0.66425366  0.56153060     0.74730
O2258       O  0.14232074  0.67729644  0.71035968    -0.66850
O2259       O  0.10323490  0.64548162  0.72397568    -0.54050
C2260       C  0.12858813  0.65870230  0.72551505     0.73120
Zr2261     Zr  0.13428304  0.70014820  0.67390196     2.77540
O2262       O  0.17990111  0.71066998  0.68006694    -0.97600
O2263       O  0.14462133  0.73553639  0.70923573    -0.78420
Zr2264     Zr  0.10290260  0.63657845  0.62253197     2.70070
O2265       O  0.14594564  0.63995892  0.62391978    -0.79670
O2266       O  0.08201992  0.59619721  0.59242234    -0.98750
Zr2267     Zr  0.07018947  0.63839211  0.68833723     2.21500
Zr2268     Zr  0.09759044  0.69455396  0.60440276     2.11130
O2269       O  0.12588719  0.68236808  0.62687923    -2.47440
O2270       O  0.11167622  0.65423990  0.66873966    -0.79460
O2271       O  0.10732737  0.71351491  0.65152535    -0.71660
O2272       O  0.06154846  0.62069903  0.64147574    -2.32620
O2273       O  0.09339783  0.68521436  0.69525252    -2.28820
O2274       O  0.07532487  0.64860487  0.59969910    -0.73420
H2275       H  0.04632638  0.68673169  0.61609455     0.78580
H2276       H  0.05234783  0.60198371  0.63987300     0.79670
H2277       H  0.14220200  0.68844417  0.61791425     0.81890
H2278       H  0.09626176  0.69102183  0.71472071     0.79500
H2279       H  0.02734827  0.58852272  0.59201128     0.42530
H2280       H  0.07480968  0.60005774  0.57608800     0.41500
H2281       H  0.15586407  0.65296065  0.63974749     0.41180
H2282       H  0.18490784  0.70777859  0.66135951     0.39110
H2283       H  0.14899571  0.75059232  0.69876978     0.42250
H2284       H  0.08124085  0.72974899  0.72429846     0.37030
H2285       H  0.01824160  0.69768971  0.66214766     0.43150
H2286       H  0.49871613  0.65325179  0.61398265     0.39560
H2287       H  0.19005969  0.72968350  0.68475124     0.44480
H2288       H  0.09036455  0.74934024  0.70179171     0.43200
H2289       H  0.48257977  0.62299739  0.60830035     0.43340
H2290       H  0.09679594  0.59424685  0.58560625     0.43700
O2291       O  0.32204981  0.96167583  0.68640310    -0.75170
O2292       O  0.36054283  0.96346324  0.69919690    -0.54080
C2293       C  0.34300781  0.97024125  0.70234754     0.78560
O2294       O  0.26908998  0.83666278  0.61992117    -0.59770
O2295       O  0.26308462  0.84935349  0.57849280    -0.52800
C2296       C  0.25604256  0.83302769  0.59708802     0.70570
O2297       O  0.32870883  0.87010586  0.69066750    -0.74330
O2298       O  0.36153798  0.91137827  0.70325259    -0.54890
C2299       C  0.34789938  0.88732854  0.70709130     0.76570
O2300       O  0.26283251  0.91744885  0.61479975    -0.59470
O2301       O  0.26180760  0.89614221  0.57314972    -0.52590
C2302       C  0.25159137  0.90498146  0.59127895     0.73170
Zr2303     Zr  0.30333832  0.93338872  0.64313371     2.54710
O2304       O  0.26810039  0.91736628  0.67470740    -0.80040
O2305       O  0.30025442  0.97161518  0.63546815    -0.93460
Zr2306     Zr  0.30742015  0.86973577  0.64687792     2.64680
O2307       O  0.27254524  0.85713294  0.67878697    -0.98410
O2308       O  0.30750244  0.82897893  0.64592174    -0.80470
O2309       O  0.32020741  0.91165213  0.66824781    -0.83830
O2310       O  0.28955911  0.89097119  0.62265376    -2.18540
O2311       O  0.33066845  0.95857759  0.56461028    -0.67220
O2312       O  0.31314894  0.92179026  0.53686308    -0.51790
C2313       C  0.32534736  0.94694644  0.54031275     0.71550
O2314       O  0.40353959  0.90673971  0.63092234    -0.60130
O2315       O  0.40562251  0.93253812  0.66916050    -0.52110
C2316       C  0.41430241  0.92016016  0.65415543     0.73350
O2317       O  0.34025970  0.85850945  0.56718781    -0.71520
O2318       O  0.31152376  0.86506845  0.54222746    -0.50200
C2319       C  0.32559080  0.85402691  0.54537580     0.74730
O2320       O  0.40008744  0.99326660  0.62812649    -0.66850
O2321       O  0.40392259  0.97782041  0.66825726    -0.54050
C2322       C  0.41131344  0.99570300  0.65206908     0.73120
Zr2323     Zr  0.36383836  0.96056766  0.59615970     2.77540
O2324       O  0.39505108  0.96906959  0.56049994    -0.97600
O2325       O  0.37406571  0.00510596  0.59346594    -0.78420
Zr2326     Zr  0.36683786  0.89685937  0.59856690     2.70070
O2327       O  0.39641883  0.91738933  0.56243804    -0.79670
O2328       O  0.38660633  0.86933206  0.59383085    -0.98750
Zr2329     Zr  0.36635945  0.93548186  0.66445528     2.21500
Zr2330     Zr  0.30209961  0.89303521  0.57560556     2.11130
O2331       O  0.34935968  0.91816750  0.57374886    -2.47440
O2332       O  0.38206499  0.93936289  0.61934361    -0.79460
O2333       O  0.31723611  0.93603703  0.59748431    -0.71660
O2334       O  0.35332107  0.89296014  0.64424004    -2.32620
O2335       O  0.34944546  0.95805477  0.64120014    -2.28820
O2336       O  0.32057878  0.87219159  0.60076896    -0.73420
H2337       H  0.27070165  0.88095296  0.62320169     0.78580
H2338       H  0.36115272  0.88477164  0.65403715     0.79670
H2339       H  0.35406625  0.91884718  0.55479946     0.81890
H2340       H  0.35588733  0.97544735  0.64968946     0.79500
H2341       H  0.31804419  0.82926144  0.63014292     0.42530
H2342       H  0.37295492  0.85215454  0.59876028     0.41500
H2343       H  0.41334391  0.92995663  0.57253178     0.41180
H2344       H  0.38435107  0.96266791  0.54278286     0.39110
H2345       H  0.36129018  0.00693681  0.60508492     0.42250
H2346       H  0.31850546  0.98624839  0.63860022     0.37030
H2347       H  0.27420122  0.91057433  0.68931314     0.43150
H2348       H  0.25866444  0.85883116  0.66899241     0.39560
H2349       H  0.40486331  0.98816436  0.56052200     0.44480
H2350       H  0.29104033  0.97387217  0.65137380     0.43200
H2351       H  0.26511227  0.83821849  0.67911028     0.43340
H2352       H  0.38829063  0.86677278  0.57378786     0.43700
C2353       C  0.43429716  0.52088199  0.66169175    -0.05350
C2354       C  0.45571882  0.52210169  0.67653014    -0.32770
C2355       C  0.47901899  0.54584968  0.68260505     0.36480
C2356       C  0.48098504  0.56843261  0.67344657    -0.05700
C2357       C  0.45833132  0.56745296  0.66200164    -0.32670
C2358       C  0.43528141  0.54392968  0.65574721     0.36380
H2359       H  0.45490510  0.00450653  0.68207669     0.16750
O2360       O  0.00017195  0.54637929  0.69547379    -0.60170
H2361       H  0.45905972  0.58488034  0.65596400     0.16770
O2362       O  0.41390006  0.54362937  0.64355361    -0.60270
H2363       H  0.41803317  0.54663474  0.62404761     0.43760
H2364       H  0.99911205  0.55051731  0.71536325     0.43720
C2365       C  0.18476887  0.76516846  0.61119302    -0.05350
C2366       C  0.20752578  0.76376005  0.60657494    -0.32770
C2367       C  0.23021104  0.78510515  0.59826892     0.36480
C2368       C  0.23052584  0.80844865  0.59438109    -0.05700
C2369       C  0.20728276  0.80938676  0.59764084    -0.32670
C2370       C  0.18453903  0.78797074  0.60593297     0.36380
H2371       H  0.20785889  0.74618217  0.60984184     0.16750
O2372       O  0.25248798  0.78341316  0.59500946    -0.60170
H2373       H  0.20734016  0.82739360  0.59587961     0.16770
O2374       O  0.16259778  0.78999763  0.61024834    -0.60270
H2375       H  0.16453710  0.79676631  0.62990722     0.43760
H2376       H  0.26005358  0.78533548  0.61397021     0.43720
C2377       C  0.14248151  0.65040676  0.74494207    -0.05350
C2378       C  0.16420505  0.66832909  0.76270728    -0.32770
C2379       C  0.17510520  0.65977102  0.78277362     0.36480
C2380       C  0.16516489  0.63301193  0.78441976    -0.05700
C2381       C  0.14488719  0.61539520  0.76533944    -0.32670
C2382       C  0.13328742  0.62373955  0.74632359     0.36380
H2383       H  0.17166586  0.68890057  0.76219038     0.16750
O2384       O  0.19399314  0.67759847  0.80196347    -0.60170
H2385       H  0.13635701  0.59475642  0.76674788     0.16770
O2386       O  0.11244923  0.60540514  0.72942937    -0.60270
H2387       H  0.09709294  0.59893503  0.74100328     0.43760
H2388       H  0.21093456  0.68082312  0.79471713     0.43720
C2389       C  0.13214760  0.65963572  0.53540344    -0.05350
C2390       C  0.11313771  0.64187836  0.51529226    -0.32770
C2391       C  0.11906878  0.62702126  0.99628332     0.36480
C2392       C  0.14452231  0.63026179  0.99676454    -0.05700
C2393       C  0.16408561  0.64947108  0.51557742    -0.32670
C2394       C  0.15792738  0.66379677  0.53511489     0.36380
H2395       H  0.09301862  0.63787140  0.51584535     0.16750
O2396       O  0.09989833  0.60956389  0.97712518    -0.60170
H2397       H  0.18393003  0.65265659  0.51579136     0.16770
O2398       O  0.17655263  0.68006054  0.55543638    -0.60270
H2399       H  0.18372924  0.69766921  0.54936984     0.43760
H2400       H  0.08959880  0.59377105  0.98669643     0.43720
C2401       C  0.12324025  0.95824832  0.51477459    -0.05350
C2402       C  0.15019563  0.97505514  0.51219972    -0.32770
C2403       C  0.15895996  0.49551745  0.49522206     0.36480
C2404       C  0.14066741  0.50005116  0.98107780    -0.05700
C2405       C  0.11374080  0.98231447  0.98247101    -0.32670
C2406       C  0.10506071  0.96157041  0.49888596     0.36380
H2407       H  0.16451613  0.97362265  0.52511932     0.16750
O2408       O  0.18541820  0.51227006  0.99455307    -0.60170
H2409       H  0.09924810  0.98484403  0.97121126     0.16770
O2410       O  0.07861279  0.94622481  0.50155578    -0.60270
H2411       H  0.07305150  0.93083075  0.48809698     0.43760
H2412       H  0.19153250  0.50385208  0.48050435     0.43720
C2413       C  0.14975837  0.98800320  0.73424653    -0.05350
C2414       C  0.14884865  0.97825670  0.75955716    -0.32770
C2415       C  0.15950706  0.49495116  0.78375103     0.36480
C2416       C  0.17050123  0.52211657  0.78312721    -0.05700
C2417       C  0.17297179  0.53189607  0.75729871    -0.32670
C2418       C  0.16288031  0.51499184  0.73293160     0.36380
H2419       H  0.13902328  0.95749482  0.76070858     0.16750
O2420       O  0.15766805  0.98418874  0.80806373    -0.60170
H2421       H  0.18138515  0.55251882  0.75606282     0.16770
O2422       O  0.16427212  0.52494317  0.70818567    -0.60270
H2423       H  0.18030580  0.52631228  0.70023537     0.43760
H2424       H  0.17465561  0.98470721  0.81112189     0.43720
C2425       C  0.09308164  0.52340652  0.67042149    -0.05350
C2426       C  0.07018360  0.52316976  0.67866622    -0.32770
C2427       C  0.06872483  0.54597635  0.68073045     0.36480
C2428       C  0.09086055  0.56962882  0.67598467    -0.05700
C2429       C  0.11459551  0.57012781  0.67071972    -0.32670
C2430       C  0.11574475  0.54724242  0.66771044     0.36380
H2431       H  0.05284738  0.00497450  0.68148317     0.16750
O2432       O  0.04503067  0.54449413  0.68477110    -0.60170
H2433       H  0.13196147  0.58819765  0.66723753     0.16770
O2434       O  0.13877407  0.54821777  0.66094929    -0.60270
H2435       H  0.14956772  0.55343576  0.67859710     0.43760
H2436       H  0.03630081  0.54068225  0.66603325     0.43720
C2437       C  0.07649211  0.80851265  0.59830392    -0.05350
C2438       C  0.05490356  0.78749829  0.60883960    -0.32770
C2439       C  0.05572816  0.76535810  0.61492748     0.36480
C2440       C  0.07815025  0.76328869  0.60983473    -0.05700
C2441       C  0.09878984  0.78314899  0.59676735    -0.32670
C2442       C  0.09820770  0.80575610  0.59128011     0.36380
H2443       H  0.03785057  0.78901622  0.61422389     0.16750
O2444       O  0.03445058  0.74583107  0.62596893    -0.60170
H2445       H  0.11604493  0.78178638  0.59216462     0.16770
O2446       O  0.11989695  0.82586911  0.58154447    -0.60270
H2447       H  0.11671033  0.82312293  0.56119343     0.43760
H2448       H  0.03577862  0.75189042  0.64578508     0.43720
C2449       C  0.17612707  0.89943523  0.59029179    -0.05350
C2450       C  0.19231345  0.91023227  0.56842705    -0.32770
C2451       C  0.21641452  0.91043014  0.56676059     0.36480
C2452       C  0.22417129  0.89936430  0.58685088    -0.05700
C2453       C  0.20688111  0.88682142  0.60722369    -0.32670
C2454       C  0.18318441  0.88681818  0.60906648     0.36380
H2455       H  0.18726645  0.92017682  0.55392269     0.16750
O2456       O  0.23296553  0.92302814  0.54673304    -0.60170
H2457       H  0.21258360  0.87833501  0.62293972     0.16770
O2458       O  0.16786949  0.87601780  0.63059921    -0.60270
H2459       H  0.15646782  0.85742334  0.62409115     0.43760
H2460       H  0.24392115  0.94124633  0.55482310     0.43720
C2461       C  0.48757490  0.92426900  0.66978048    -0.05350
C2462       C  0.46429099  0.90178397  0.67477155    -0.32770
C2463       C  0.44001667  0.90059420  0.67133826     0.36480
C2464       C  0.43908057  0.92225212  0.66343201    -0.05700
C2465       C  0.46237131  0.94524916  0.66039612    -0.32670
C2466       C  0.48664137  0.94632862  0.66323164     0.36380
H2467       H  0.46478819  0.88448719  0.67905611     0.16750
O2468       O  0.41730101  0.87792272  0.67449476    -0.60170
H2469       H  0.46160740  0.96173547  0.65358610     0.16770
O2470       O  0.50883208  0.96752275  0.65567530    -0.60270
H2471       H  0.50942398  0.98284343  0.66589858     0.43760
H2472       H  0.41276292  0.86767764  0.65622005     0.43720
C2473       C  0.48373436  0.62922376  0.99424514    -0.05350
C2474       C  0.48737675  0.65147101  0.51043732    -0.32770
C2475       C  0.00879491  0.66503639  0.52997547     0.36480
C2476       C  0.02750592  0.65704844  0.53284916    -0.05700
C2477       C  0.02483100  0.63598782  0.51543017    -0.32670
C2478       C  0.50309344  0.62191282  0.99662472     0.36380
H2479       H  0.47303962  0.65775185  0.50870054     0.16750
O2480       O  0.01001297  0.68460074  0.54778793    -0.60170
H2481       H  0.03855204  0.62903080  0.51805096     0.16770
O2482       O  0.50112273  0.60107640  0.98057232    -0.60270
H2483       H  0.99336853  0.58647007  0.99226661     0.43760
H2484       H  0.52250293  0.70083742  0.53997376     0.43720
C2485       C  0.00948324  0.65011845  0.74278690    -0.05350
C2486       C  0.00514360  0.66853467  0.75816577    -0.32770
C2487       C  0.48559597  0.66081987  0.77763708     0.36480
C2488       C  0.46932327  0.63433386  0.78112347    -0.05700
C2489       C  0.47262752  0.61608162  0.76450478    -0.32670
C2490       C  0.49241889  0.62364754  0.74579237     0.36380
H2491       H  0.01783220  0.68898325  0.75619310     0.16750
O2492       O  0.48392255  0.67933900  0.79451928    -0.60170
H2493       H  0.46093481  0.59568297  0.76748223     0.16770
O2494       O  0.49545193  0.60487084  0.73115250    -0.60270
H2495       H  0.47878393  0.59421206  0.71974735     0.43760
H2496       H  0.96987585  0.68136520  0.78553697     0.43720
C2497       C  0.35747962  0.50166670  0.97741228    -0.05350
C2498       C  0.33452887  0.97729085  0.97062799    -0.32770
C2499       C  0.32371158  0.95866096  0.99018645     0.36480
C2500       C  0.33549641  0.96439683  0.51722300    -0.05700
C2501       C  0.35810708  0.98891162  0.52358312    -0.32670
C2502       C  0.36910919  0.50706796  0.50430084     0.36380
H2503       H  0.32522424  0.97249583  0.95000033     0.16750
O2504       O  0.30162376  0.93523947  0.98269629    -0.60170
H2505       H  0.36785764  0.99420857  0.54386497     0.16770
O2506       O  0.39088444  0.53063216  0.51243207    -0.60270
H2507       H  0.40591677  0.52743788  0.51197627     0.43760
H2508       H  0.28670740  0.93782601  0.98758060     0.43720
C2509       C  0.35931697  0.52703318  0.77117255    -0.05350
C2510       C  0.33608107  0.00274342  0.76916636    -0.32770
C2511       C  0.33021487  0.98436904  0.74650365     0.36480
C2512       C  0.34777832  0.98994711  0.72544145    -0.05700
C2513       C  0.37053445  0.51449063  0.72682131    -0.32670
C2514       C  0.37621095  0.53309488  0.74929298     0.36380
H2515       H  0.32304700  0.99748519  0.78596240     0.16750
O2516       O  0.30798110  0.96050788  0.74586147    -0.60170
H2517       H  0.38422134  0.51904330  0.71066519     0.16770
O2518       O  0.39950261  0.55611559  0.75087672    -0.60270
H2519       H  0.39544569  0.56814263  0.74182588     0.43760
H2520       H  0.31351355  0.94953548  0.75496774     0.43720
C2521       C  0.06313433  0.58115482  0.92453931    -0.05350
C2522       C  0.06328517  0.60366458  0.91815631    -0.32770
C2523       C  0.04040285  0.60499749  0.91836765     0.36480
C2524       C  0.01685874  0.58349630  0.92498429    -0.05700
C2525       C  0.01762280  0.56275378  0.93577123    -0.32670
C2526       C  0.04079537  0.56139780  0.93550614     0.36380
H2527       H  0.08090136  0.61978854  0.91142662     0.16750
O2528       O  0.04100005  0.62705268  0.91116341    -0.60170
H2529       H  0.49993226  0.54680564  0.94247340     0.16770
O2530       O  0.04120490  0.54045637  0.94477833    -0.60270
H2531       H  0.02693522  0.52493069  0.93390325     0.43760
H2532       H  0.04343124  0.62717299  0.89104859     0.43720
C2533       C  0.31133785  0.57290997  0.85440892    -0.05350
C2534       C  0.29888052  0.56692380  0.87910593    -0.32770
C2535       C  0.27643888  0.56851033  0.88331293     0.36480
C2536       C  0.26536458  0.57590388  0.86220876    -0.05700
C2537       C  0.27812253  0.58237289  0.83739527    -0.32670
C2538       C  0.30122366  0.58121880  0.83355304     0.36380
H2539       H  0.30706673  0.56168287  0.89585651     0.16750
O2540       O  0.26628284  0.56382994  0.90879170    -0.60170
H2541       H  0.27021898  0.58826805  0.82098282     0.16770
O2542       O  0.31322476  0.58743470  0.80917019    -0.60270
H2543       H  0.32455300  0.60656293  0.81139254     0.43760
H2544       H  0.25676904  0.54470364  0.90885134     0.43720
C2545       C  0.46968986  0.82387991  0.98160797    -0.05350
C2546       C  0.47392697  0.84714463  0.99533757    -0.32770
C2547       C  0.99565827  0.86206100  0.51374786     0.36480
C2548       C  0.01298768  0.85304992  0.52088358    -0.05700
C2549       C  0.00856789  0.82932388  0.50765729    -0.32670
C2550       C  0.48741670  0.81509057  0.98760253     0.36380
H2551       H  0.46154958  0.85504256  0.98989905     0.16750
O2552       O  0.00003514  0.88591062  0.52447669    -0.60170
H2553       H  0.02132886  0.82182283  0.51288358     0.16770
O2554       O  0.48472808  0.79313195  0.97331474    -0.60270
H2555       H  0.47186245  0.77862297  0.98326770     0.43760
H2556       H  0.01299817  0.89844378  0.51268758     0.43720
C2557       C  0.02007618  0.87574314  0.73228963    -0.05350
C2558       C  0.50554211  0.88807894  0.73860081    -0.32770
C2559       C  0.48650144  0.87906712  0.75790603     0.36480
C2560       C  0.48212262  0.85765574  0.77214065    -0.05700
C2561       C  0.49612332  0.84476003  0.76514682    -0.32670
C2562       C  0.01475945  0.85347022  0.74513396     0.36380
H2563       H  0.00861975  0.90464059  0.72812188     0.16750
O2564       O  0.47251762  0.89161707  0.76278803    -0.60170
H2565       H  0.49313786  0.82826002  0.77565350     0.16770
O2566       O  0.02850741  0.84084261  0.73926981    -0.60270
H2567       H  0.01698852  0.82607032  0.72556217     0.43760
H2568       H  0.45679722  0.88241373  0.74971003     0.43720
C2569       C  0.42414720  0.93844768  0.87591853    -0.05350
C2570       C  0.44620295  0.96049086  0.88879130    -0.32770
C2571       C  0.44411902  0.98184484  0.89880979     0.36480
C2572       C  0.41972363  0.98065677  0.89620357    -0.05700
C2573       C  0.39757419  0.95811045  0.88418969    -0.32670
C2574       C  0.39982550  0.93729907  0.87347147     0.36380
H2575       H  0.46463870  0.96074518  0.89189503     0.16750
O2576       O  0.46606682  0.50406253  0.90974257    -0.60170
H2577       H  0.37877880  0.95728551  0.88169908     0.16770
O2578       O  0.37786575  0.91527569  0.86198950    -0.60270
H2579       H  0.37868035  0.91641798  0.84178577     0.43760
H2580       H  0.46783465  0.00134194  0.92931149     0.43720
C2581       C  0.40955173  0.72570157  0.87898659    -0.05350
C2582       C  0.38842592  0.70425638  0.88911718    -0.32770
C2583       C  0.38674115  0.68002376  0.88572611     0.36480
C2584       C  0.40625410  0.67727014  0.87203792    -0.05700
C2585       C  0.42723974  0.69851699  0.86194533    -0.32670
C2586       C  0.42910214  0.72268058  0.86539269     0.36380
H2587       H  0.37320062  0.70624325  0.89938412     0.16750
O2588       O  0.36649034  0.65932574  0.89655021    -0.60170
H2589       H  0.44287456  0.69662267  0.85249680     0.16770
O2590       O  0.45087308  0.74353959  0.85672717    -0.60270
H2591       H  0.44841136  0.74147548  0.83630696     0.43760
H2592       H  0.35305292  0.65004690  0.88102773     0.43720
C2593       C  0.01795040  0.92990156  0.88057953    -0.05350
C2594       C  0.01597962  0.95239496  0.88031058    -0.32770
C2595       C  0.03638601  0.97631889  0.89173442     0.36480
C2596       C  0.05897129  0.97779259  0.90374488    -0.05700
C2597       C  0.06043398  0.95529296  0.90557505    -0.32670
C2598       C  0.04030488  0.93145726  0.89376210     0.36380
H2599       H  0.99892928  0.95168323  0.87049322     0.16750
O2600       O  0.03565925  0.49854272  0.88805197    -0.60170
H2601       H  0.07836964  0.95661218  0.91380415     0.16770
O2602       O  0.04344626  0.91021470  0.89395591    -0.60270
H2603       H  0.05199120  0.90975688  0.87667815     0.43760
H2604       H  0.01891392  0.49593946  0.89529086     0.43720
C2605       C  0.26616121  0.68037616  0.87473109    -0.05350
C2606       C  0.26568532  0.70350388  0.88033849    -0.32770
C2607       C  0.28896639  0.72719432  0.88352480     0.36480
C2608       C  0.31312249  0.72788845  0.88157091    -0.05700
C2609       C  0.31375158  0.70484554  0.87580004    -0.32670
C2610       C  0.29029713  0.68104497  0.87211022     0.36380
H2611       H  0.24717465  0.70309645  0.88279782     0.16750
O2612       O  0.28799211  0.74960587  0.88874271    -0.60170
H2613       H  0.33235893  0.70537964  0.87380494     0.16770
O2614       O  0.29119235  0.65854614  0.86763109    -0.60270
H2615       H  0.29062748  0.65524769  0.84729133     0.43760
H2616       H  0.29008888  0.75329876  0.90911838     0.43720
C2617       C  0.32723574  0.83613918  0.52279340    -0.05350
C2618       C  0.34180410  0.82365197  0.52835625    -0.32770
C2619       C  0.35142581  0.81386660  0.50704753     0.36480
C2620       C  0.34585894  0.81548138  0.97941645    -0.05700
C2621       C  0.32805191  0.82432410  0.97388936    -0.32670
C2622       C  0.31901234  0.83477505  0.99510760     0.36380
H2623       H  0.34788040  0.82346980  0.54940110     0.16750
O2624       O  0.36841708  0.80530663  0.51356471    -0.60170
H2625       H  0.32344397  0.82583243  0.95271257     0.16770
O2626       O  0.30459907  0.84606875  0.98818817    -0.60270
H2627       H  0.28599904  0.83212573  0.98808605     0.43760
H2628       H  0.38600733  0.82111049  0.51625698     0.43720
C2629       C  0.37256017  0.86160210  0.77594272    -0.05350
C2630       C  0.39017155  0.88441557  0.76451805    -0.32770
C2631       C  0.38228339  0.89295650  0.74245970     0.36480
C2632       C  0.35604951  0.87889719  0.73130598    -0.05700
C2633       C  0.33831999  0.85598479  0.74247640    -0.32670
C2634       C  0.34634075  0.84726495  0.76457647     0.36380
H2635       H  0.41046674  0.89582609  0.77246788     0.16750
O2636       O  0.40072050  0.91489738  0.73164547    -0.60170
H2637       H  0.31816127  0.84475115  0.73405745     0.16770
O2638       O  0.32828100  0.82486649  0.77491142    -0.60270
H2639       H  0.32909206  0.81073878  0.76365485     0.43760
H2640       H  0.40965652  0.90890347  0.71836506     0.43720
O2641       O  0.86611057  0.33302416  0.31046454    -0.75170
O2642       O  0.90667761  0.36796937  0.30751423    -0.54080
C2643       C  0.88229423  0.35356743  0.29945728     0.78560
O2644       O  0.87346400  0.33925491  0.44708167    -0.59770
O2645       O  0.87062788  0.30010874  0.45044622    -0.52800
C2646       C  0.86447513  0.31784369  0.45773170     0.70570
O2647       O  0.91321017  0.40140392  0.39492203    -0.74330
O2648       O  0.93233483  0.40711826  0.35365147    -0.54890
C2649       C  0.92363810  0.41426012  0.37448653     0.76570
O2650       O  0.83841780  0.26706734  0.36354382    -0.59470
O2651       O  0.85513219  0.25868759  0.40178718    -0.52590
C2652       C  0.83726008  0.25281750  0.38251121     0.73170
Zr2653     Zr  0.86805867  0.30848024  0.34733980     2.54710
O2654       O  0.82767095  0.30979148  0.35339033    -0.80040
O2655       O  0.84963082  0.27683363  0.30697602    -0.93460
Zr2656     Zr  0.90082321  0.36068921  0.41135111     2.64680
O2657       O  0.86369393  0.36822856  0.41017815    -0.98410
O2658       O  0.92064912  0.39046222  0.45292332    -0.80470
O2659       O  0.89273959  0.35295803  0.36294982    -0.83830
O2660       O  0.87444724  0.31629618  0.39606120    -2.18540
O2661       O  0.91965832  0.26332829  0.35932423    -0.67220
O2662       O  0.90240372  0.25833101  0.40177563    -0.51790
C2663       C  0.91042354  0.25070576  0.38036650     0.71550
O2664       O  0.99439058  0.38388094  0.37434131    -0.60130
O2665       O  0.97713561  0.40520064  0.35499693    -0.52110
C2666       C  0.99567260  0.40504286  0.36889522     0.73350
O2667       O  0.96854971  0.32630143  0.43486001    -0.71520
O2668       O  0.92897915  0.30514328  0.45310676    -0.50200
C2669       C  0.95443704  0.31647721  0.45489917     0.74730
O2670       O  0.95782279  0.32809802  0.30483944    -0.66850
O2671       O  0.95826484  0.36643151  0.30563663    -0.54050
C2672       C  0.96470167  0.35004484  0.29547556     0.73120
Zr2673     Zr  0.93257608  0.30454117  0.34269952     2.77540
O2674       O  0.97290729  0.30242244  0.34192099    -0.97600
O2675       O  0.91180163  0.27304285  0.30257630    -0.78420
Zr2676     Zr  0.96532061  0.35614062  0.40689950     2.70070
O2677       O  0.00953209  0.36552282  0.42017160    -0.79670
O2678       O  0.97931102  0.39143527  0.44348914    -0.98750
Zr2679     Zr  0.93445705  0.36819202  0.34451007     2.21500
Zr2680     Zr  0.89811308  0.29660050  0.41275267     2.11130
O2681       O  0.93923985  0.31139665  0.39145156    -2.47440
O2682       O  0.95902763  0.34865460  0.35819194    -0.79460
O2683       O  0.89181992  0.28922564  0.36320944    -0.71660
O2684       O  0.94248717  0.37710266  0.39349928    -2.32620
O2685       O  0.90893360  0.32393292  0.32713805    -2.28820
O2686       O  0.92456427  0.34147851  0.42796591    -0.73420
H2687       H  0.85721973  0.30910928  0.40318926     0.78580
H2688       H  0.95301711  0.39541835  0.39922367     0.79670
H2689       H  0.94722789  0.30129854  0.39591838     0.81890
H2690       H  0.90681986  0.32184472  0.30722881     0.79500
H2691       H  0.93536560  0.40628473  0.44652662     0.42530
H2692       H  0.96476014  0.38525760  0.45604062     0.41500
H2693       H  0.51364825  0.35586679  0.40551098     0.41180
H2694       H  0.97420023  0.29586446  0.35958659     0.39110
H2695       H  0.89297326  0.26334615  0.30639546     0.42250
H2696       H  0.86128974  0.28524732  0.29205506     0.37030
H2697       H  0.83346754  0.32848233  0.35656495     0.43150
H2698       H  0.84791813  0.35073358  0.40847769     0.39560
H2699       H  0.96910830  0.28811296  0.32760635     0.44480
H2700       H  0.83300543  0.27631937  0.30176859     0.43200
H2701       H  0.86376727  0.37575158  0.42905116     0.43340
H2702       H  0.99386883  0.39157482  0.45415535     0.43700
O2703       O  0.91570971  0.15169018  0.39738210    -0.75170
O2704       O  0.90295650  0.13865431  0.35152271    -0.54080
C2705       C  0.90816232  0.15416258  0.37354559     0.78560
O2706       O  0.99174153  0.09266875  0.39532365    -0.59770
O2707       O  0.97151594  0.06821287  0.43045199    -0.52800
C2708       C  0.99168174  0.08134349  0.41671044     0.70570
O2709       O  0.96943101  0.12116816  0.32436408    -0.74330
O2710       O  0.93154601  0.11945551  0.30918610    -0.54890
C2711       C  0.95581716  0.12529843  0.30681296     0.76570
O2712       O  0.95452948  0.12953360  0.46045669    -0.59470
O2713       O  0.95246191  0.09101710  0.46627351    -0.52590
C2714       C  0.96159706  0.11549367  0.47288691     0.73170
Zr2715     Zr  0.92688251  0.12338879  0.41938556     2.54710
O2716       O  0.96298854  0.16789807  0.42667155    -0.80040
O2717       O  0.90257790  0.13135730  0.45517840    -0.93460
Zr2718     Zr  0.96328462  0.10056013  0.36623589     2.64680
O2719       O  0.00127311  0.14382614  0.37580872    -0.98410
O2720       O  0.98666037  0.08511908  0.33664206    -0.80470
O2721       O  0.93873274  0.12197078  0.37278835    -0.83830
O2722       O  0.95275845  0.10372717  0.41201070    -2.18540
O2723       O  0.85544912  0.02490450  0.43985314    -0.67220
O2724       O  0.89554297  0.03328762  0.45702126    -0.51790
C2725       C  0.87018354  0.02114018  0.45672634     0.71550
O2726       O  0.86436822  0.02954145  0.31928804    -0.60130
O2727       O  0.88140672  0.06746762  0.30078560    -0.52110
C2728       C  0.86853320  0.04247392  0.29845653     0.73350
O2729       O  0.90820550  0.00606902  0.37458849    -0.71520
O2730       O  0.92709574  0.02066325  0.41826419    -0.50200
C2731       C  0.91828764  0.00404380  0.39696461     0.74730
O2732       O  0.83678223  0.05357121  0.36385816    -0.66850
O2733       O  0.85537896  0.08972839  0.34157297    -0.54050
C2734       C  0.83578194  0.07193762  0.35272932     0.73120
Zr2735     Zr  0.86248671  0.05596133  0.40521020     2.77540
O2736       O  0.81604064  0.02421895  0.40716616    -0.97600
O2737       O  0.84894533  0.08109870  0.43540545    -0.78420
Zr2738     Zr  0.89824644  0.03386210  0.35141459     2.70070
O2739       O  0.86719320  0.48819511  0.33838550    -0.79670
O2740       O  0.92063005  0.02751044  0.31246503    -0.98750
Zr2741     Zr  0.89941837  0.09646135  0.34392846     2.21500
Zr2742     Zr  0.92739988  0.06114308  0.42568989     2.11130
O2743       O  0.88732370  0.03494069  0.39791972    -2.47440
O2744       O  0.87302321  0.05395607  0.35843635    -0.79460
O2745       O  0.90154451  0.08128358  0.43423653    -0.71660
O2746       O  0.92461507  0.07551411  0.33725542    -2.32620
O2747       O  0.88756146  0.09839777  0.39121395    -2.28820
O2748       O  0.93800550  0.05799247  0.37887996    -0.73420
H2749       H  0.96953996  0.11361558  0.42218685     0.78580
H2750       H  0.92846719  0.07427589  0.31817721     0.79670
H2751       H  0.87799117  0.01730223  0.40263609     0.81890
H2752       H  0.87683207  0.10646206  0.39280653     0.79500
H2753       H  0.97317523  0.07262712  0.32241457     0.42530
H2754       H  0.92449523  0.01393843  0.31748086     0.41500
H2755       H  0.85336384  0.98362305  0.35173277     0.41180
H2756       H  0.81485797  0.00710308  0.40374324     0.39110
H2757       H  0.85019449  0.07615395  0.45407210     0.42250
H2758       H  0.88992899  0.13464628  0.44509976     0.37030
H2759       H  0.97643437  0.16832720  0.41436873     0.43150
H2760       H  0.00619274  0.14537124  0.39568248     0.39560
H2761       H  0.81208982  0.02541281  0.42674193     0.44480
H2762       H  0.91544607  0.14844215  0.46478066     0.43200
H2763       H  0.51557727  0.14292533  0.36622068     0.43340
H2764       H  0.90677675  0.01884728  0.29728226     0.43700
O2765       O  0.50688498  0.40753476  0.14011718    -0.75170
O2766       O  0.53216738  0.43505870  0.17727818    -0.54080
C2767       C  0.51038195  0.42190902  0.16251077     0.78560
O2768       O  0.57091501  0.33846982  0.12598238    -0.59770
O2769       O  0.58620613  0.35052881  0.08365897    -0.52800
C2770       C  0.57807927  0.33427236  0.10234485     0.70570
O2771       O  0.54140209  0.36934139  0.19411686    -0.74330
O2772       O  0.55143671  0.41041908  0.20964208    -0.54890
C2773       C  0.53928725  0.38579026  0.21099976     0.76570
O2774       O  0.52234927  0.37512081  0.06417808    -0.59470
O2775       O  0.55564177  0.37047704  0.04666770    -0.52590
C2776       C  0.53193058  0.36687722  0.04527165     0.73170
Zr2777     Zr  0.53348321  0.39956046  0.10809162     2.54710
O2778       O  0.99040494  0.36085689  0.10726406    -0.80040
O2779       O  0.51645844  0.42123294  0.08094002    -0.93460
Zr2780     Zr  0.56603397  0.37062765  0.15385310     2.64680
O2781       O  0.52643023  0.32851705  0.15451781    -0.98410
O2782       O  0.58981465  0.36003222  0.18700757    -0.80470
O2783       O  0.54436676  0.39474340  0.15295569    -0.83830
O2784       O  0.55364037  0.37367967  0.10812754    -2.18540
O2785       O  0.61348109  0.46189056  0.05967098    -0.67220
O2786       O  0.60904350  0.42270452  0.04388210    -0.51790
C2787       C  0.61482125  0.44639326  0.04100516     0.71550
O2788       O  0.64650804  0.46343241  0.19226627    -0.60130
O2789       O  0.60946360  0.46157119  0.20901629    -0.52110
C2790       C  0.63432748  0.46985573  0.21021305     0.73350
O2791       O  0.65669589  0.41610738  0.12106327    -0.71520
O2792       O  0.63510334  0.39728234  0.07885532    -0.50200
C2793       C  0.65455144  0.40472463  0.09677823     0.74730
O2794       O  0.60064108  0.49662010  0.13790311    -0.66850
O2795       O  0.58158741  0.48050520  0.17763912    -0.54050
C2796       C  0.59204368  0.49869587  0.16166439     0.73120
Zr2797     Zr  0.60190419  0.46309756  0.10641604     2.77540
O2798       O  0.64610899  0.50022607  0.10693236    -0.97600
O2799       O  0.58239949  0.48327444  0.08040138    -0.78420
Zr2800     Zr  0.63442089  0.43317696  0.15048778     2.70070
O2801       O  0.67791381  0.46928993  0.14430140    -0.79670
O2802       O  0.65107640  0.41490316  0.18292091    -0.98750
Zr2803     Zr  0.57441805  0.43696011  0.17356719     2.21500
Zr2804     Zr  0.59238232  0.39492109  0.08283947     2.11130
O2805       O  0.62271738  0.43752340  0.10507538    -2.47440
O2806       O  0.61415837  0.45890712  0.15093543    -0.79460
O2807       O  0.57202169  0.42118179  0.08392767    -0.71660
O2808       O  0.59612077  0.41221010  0.17572367    -2.32620
O2809       O  0.56233799  0.44189614  0.12863415    -2.29180
O2810       O  0.60432112  0.39139024  0.12900834    -0.73420
H2811       H  0.54180853  0.35647540  0.09941339     0.78580
H2812       H  0.60055476  0.41121013  0.19460506     0.79670
H2813       H  0.63836601  0.44560086  0.09491884     0.81890
H2814       H  0.55371972  0.45210107  0.12927079     0.79500
H2815       H  0.57634118  0.34908890  0.19940022     0.42530
H2816       H  0.64446857  0.39685697  0.17487279     0.41500
H2817       H  0.67519807  0.48430827  0.14338232     0.41180
H2818       H  0.65609364  0.49392339  0.09574031     0.39110
H2819       H  0.57347796  0.47107056  0.06374092     0.42250
H2820       H  0.53072441  0.43135522  0.06889241     0.37030
H2821       H  0.99358987  0.34846900  0.11667700     0.43150
H2822       H  0.52044312  0.32222875  0.13489903     0.39560
H2823       H  0.64420008  0.01227927  0.09551821     0.44480
H2824       H  0.51596483  0.43443012  0.09414226     0.43200
H2825       H  0.53259056  0.31696081  0.16086232     0.43340
H2826       H  0.67023600  0.42374862  0.18066350     0.43700
O2827       O  0.64962414  0.11799306  0.32637360    -0.75170
O2828       O  0.68634113  0.11668072  0.31385144    -0.54080
C2829       C  0.66810257  0.12262235  0.31014952     0.78560
O2830       O  0.67226202  0.13011049  0.46296682    -0.59770
O2831       O  0.63566412  0.09162160  0.46930348    -0.52800
C2832       C  0.65148828  0.11614593  0.47547329     0.70570
O2833       O  0.73024653  0.15480452  0.39901954    -0.74330
O2834       O  0.73403392  0.13780257  0.35673903    -0.54890
C2835       C  0.74185505  0.15599310  0.37663890     0.76570
O2836       O  0.59661709  0.08873111  0.39509311    -0.59470
O2837       O  0.59312507  0.06632072  0.43217502    -0.52590
C2838       C  0.58564440  0.07831012  0.41691513     0.73170
Zr2839     Zr  0.63287485  0.09572426  0.36689021     2.54710
O2840       O  0.63126903  0.13577139  0.37131920    -0.80040
O2841       O  0.59475827  0.07385350  0.33410163    -0.93460
Zr2842     Zr  0.69288136  0.12465700  0.42227835     2.64680
O2843       O  0.69713324  0.16751181  0.42561787    -0.98410
O2844       O  0.72802660  0.13774412  0.45770870    -0.80470
O2845       O  0.67920821  0.11936107  0.37485689    -0.83830
O2846       O  0.64690948  0.10230891  0.41371363    -2.18540
O2847       O  0.59573417  0.00295534  0.38150918    -0.67220
O2848       O  0.59125506  0.01928528  0.42374684    -0.51790
C2849       C  0.58360216  0.00166680  0.40343685     0.71550
O2850       O  0.72856772  0.06610001  0.38761432    -0.60130
O2851       O  0.73344530  0.08811885  0.34999246    -0.52110
C2852       C  0.74084001  0.07677269  0.36655702     0.73350
O2853       O  0.66979720  0.02896827  0.45033029    -0.71520
O2854       O  0.63408434  0.03233458  0.46200398    -0.50200
C2855       C  0.64900373  0.02221690  0.46383438     0.74730
O2856       O  0.66655794  0.02801587  0.33098725    -0.66850
O2857       O  0.68648523  0.06402157  0.30931256    -0.54050
C2858       C  0.67524833  0.03918671  0.30912808     0.73120
Zr2859     Zr  0.63420391  0.03099409  0.35851342     2.77540
O2860       O  0.62246587  0.48572000  0.34899397    -0.97600
O2861       O  0.60596796  0.02127943  0.31703029    -0.78420
Zr2862     Zr  0.69254621  0.05914780  0.41566321     2.70070
O2863       O  0.70204860  0.02385018  0.41524159    -0.79670
O2864       O  0.72653786  0.08317697  0.45260153    -0.98750
Zr2865     Zr  0.69564409  0.09471535  0.35029780     2.21500
Zr2866     Zr  0.63094925  0.06082926  0.43026909     2.11130
O2867       O  0.64663029  0.03557368  0.40572889    -2.47440
O2868       O  0.68003909  0.05356217  0.36794136    -0.79460
O2869       O  0.61680178  0.05446950  0.38256981    -0.71660
O2870       O  0.70924140  0.10022104  0.39848152    -2.32620
O2871       O  0.64897134  0.07159509  0.34143464    -2.28820
O2872       O  0.67723900  0.08407986  0.44080341    -0.73420
H2873       H  0.63973671  0.11209432  0.42292130     0.78580
H2874       H  0.72817626  0.10948123  0.40105571     0.79670
H2875       H  0.63893099  0.01821572  0.41115833     0.81890
H2876       H  0.64419695  0.06950157  0.32195549     0.79500
H2877       H  0.74319290  0.13953191  0.44749125     0.42530
H2878       H  0.71759211  0.07686961  0.46973759     0.41500
H2879       H  0.69015917  0.01107729  0.40011162     0.41180
H2880       H  0.62218370  0.47946166  0.36730027     0.39110
H2881       H  0.58908145  0.01843284  0.32400735     0.42250
H2882       H  0.60170857  0.07118436  0.31651105     0.37030
H2883       H  0.64872702  0.14894253  0.37991138     0.43150
H2884       H  0.67899092  0.16434951  0.42702123     0.39560
H2885       H  0.60388587  0.47644759  0.34173364     0.44480
H2886       H  0.59003180  0.08725994  0.33095622     0.43200
H2887       H  0.70597567  0.17577361  0.44403955     0.43340
H2888       H  0.73846938  0.07597002  0.45079028     0.43700
O2889       O  0.53617537  0.17642043  0.20832479    -0.75170
O2890       O  0.54345516  0.14479334  0.22256275    -0.54080
C2891       C  0.53138720  0.15795198  0.22362277     0.78560
O2892       O  0.52915934  0.14538469  0.07607074    -0.59770
O2893       O  0.56573327  0.18141257  0.06443237    -0.52800
C2894       C  0.54202956  0.16223740  0.05949374     0.70570
O2895       O  0.50653606  0.10193964  0.14770106    -0.74330
O2896       O  0.52643674  0.09971780  0.18702049    -0.54890
C2897       C  0.50642780  0.09159561  0.16972889     0.76570
O2898       O  0.57107871  0.23234296  0.14201915    -0.59470
O2899       O  0.59101262  0.23139240  0.10236365    -0.52590
C2900       C  0.58025596  0.24092120  0.11864448     0.73170
Zr2901     Zr  0.56676786  0.19908590  0.17250952     2.54710
O2902       O  0.53175062  0.20948345  0.17673958    -0.80040
O2903       O  0.59191159  0.23472055  0.20797395    -0.93460
Zr2904     Zr  0.53537174  0.13547581  0.12101878     2.64680
O2905       O  0.99479295  0.13715140  0.12218342    -0.98410
O2906       O  0.51512574  0.09533920  0.09053158    -0.80470
O2907       O  0.54389865  0.15317594  0.16722147    -0.83830
O2908       O  0.55695204  0.18116525  0.12553743    -2.18540
O2909       O  0.66256393  0.23408656  0.14361456    -0.67220
O2910       O  0.64051434  0.23228889  0.10358046    -0.51790
C2911       C  0.66108045  0.24244488  0.12019709     0.71550
O2912       O  0.60025016  0.10358317  0.14960890    -0.60130
O2913       O  0.57572186  0.10004293  0.18656981    -0.52110
C2914       C  0.58874425  0.09262729  0.17080473     0.73350
O2915       O  0.62009499  0.14816364  0.07864967    -0.71520
O2916       O  0.61635056  0.18208971  0.06537263    -0.50200
C2917       C  0.62262465  0.16425367  0.06153060     0.74730
O2918       O  0.64232074  0.17729645  0.21035968    -0.66850
O2919       O  0.60323490  0.14548162  0.22397568    -0.54050
C2920       C  0.62858814  0.15870230  0.22551505     0.73120
Zr2921     Zr  0.63428304  0.20014821  0.17390196     2.77540
O2922       O  0.67990111  0.21067001  0.18006697    -0.97600
O2923       O  0.64462131  0.23553640  0.20923573    -0.78420
Zr2924     Zr  0.60290261  0.13657846  0.12253198     2.70070
O2925       O  0.64594566  0.13995895  0.12391979    -0.79670
O2926       O  0.58201995  0.09619722  0.09242235    -0.98750
Zr2927     Zr  0.57018947  0.13839211  0.18833723     2.21500
Zr2928     Zr  0.59759044  0.19455397  0.10440276     2.11130
O2929       O  0.62588720  0.18236809  0.12687924    -2.47440
O2930       O  0.61167623  0.15423991  0.16873967    -0.79460
O2931       O  0.60732737  0.21351491  0.15152535    -0.71660
O2932       O  0.56154847  0.12069904  0.14147574    -2.32620
O2933       O  0.59339782  0.18521436  0.19525251    -2.28820
O2934       O  0.57532488  0.14860488  0.09969910    -0.73420
H2935       H  0.54632638  0.18673168  0.11609455     0.78580
H2936       H  0.55234785  0.10198372  0.13987300     0.79670
H2937       H  0.64220201  0.18844418  0.11791425     0.81890
H2938       H  0.59626175  0.19102183  0.21472071     0.79500
H2939       H  0.52734830  0.08852273  0.09201126     0.42530
H2940       H  0.57480970  0.10005774  0.07608801     0.41500
H2941       H  0.65586408  0.15296067  0.13974751     0.41180
H2942       H  0.68490785  0.20777861  0.16135954     0.39110
H2943       H  0.64899571  0.25059233  0.19876978     0.42250
H2944       H  0.58124084  0.22974898  0.22429845     0.37030
H2945       H  0.51824159  0.19768969  0.16214764     0.43150
H2946       H  0.99871613  0.15325178  0.11398264     0.39560
H2947       H  0.69005968  0.22968353  0.18475126     0.44480
H2948       H  0.59036452  0.24934023  0.20179170     0.43200
H2949       H  0.98257977  0.12299738  0.10830035     0.43340
H2950       H  0.59679597  0.09424687  0.08560626     0.43700
O2951       O  0.82204976  0.46167582  0.18640310    -0.75170
O2952       O  0.86054279  0.46346326  0.19919691    -0.54080
C2953       C  0.84300777  0.47024125  0.20234755     0.78560
O2954       O  0.76908999  0.33666277  0.11992118    -0.59770
O2955       O  0.76308463  0.34935349  0.07849281    -0.52800
C2956       C  0.75604257  0.33302769  0.09708802     0.70570
O2957       O  0.82870883  0.37010587  0.19066752    -0.74330
O2958       O  0.86153795  0.41137829  0.20325262    -0.54890
C2959       C  0.84789936  0.38732856  0.20709132     0.76570
O2960       O  0.76283249  0.41744882  0.11479974    -0.59470
O2961       O  0.76180760  0.39614219  0.07314972    -0.52590
C2962       C  0.75159136  0.40498143  0.09127894     0.73170
Zr2963     Zr  0.80333829  0.43338870  0.14313372     2.54710
O2964       O  0.76810036  0.41736625  0.17470739    -0.80040
O2965       O  0.80025436  0.47161516  0.13546815    -0.93460
Zr2966     Zr  0.80742016  0.36973578  0.14687793     2.64680
O2967       O  0.77254523  0.35713292  0.17878696    -0.98410
O2968       O  0.80750248  0.32897895  0.14592174    -0.80470
O2969       O  0.82020739  0.41165213  0.16824782    -0.83830
O2970       O  0.78955911  0.39097118  0.12265376    -2.18540
O2971       O  0.83066844  0.45857759  0.06461028    -0.67220
O2972       O  0.81314895  0.42179025  0.03686308    -0.51790
C2973       C  0.82534736  0.44694644  0.04031275     0.71550
O2974       O  0.90353965  0.40673983  0.13092236    -0.60130
O2975       O  0.90562251  0.43253817  0.16916056    -0.52110
C2976       C  0.91430245  0.42016026  0.15415546     0.73350
O2977       O  0.84025984  0.35850954  0.06718774    -0.71520
O2978       O  0.81152376  0.36506843  0.04222748    -0.50200
C2979       C  0.82559084  0.35402694  0.04537579     0.74730
O2980       O  0.90008742  0.49326662  0.12812651    -0.66850
O2981       O  0.90392257  0.47782043  0.16825729    -0.54050
C2982       C  0.91131341  0.49570302  0.15206910     0.73120
Zr2983     Zr  0.86383834  0.46056767  0.09615972     2.77540
O2984       O  0.89505108  0.46906961  0.06049997    -0.97600
O2985       O  0.87406567  0.50510597  0.09346595    -0.78420
Zr2986     Zr  0.86683788  0.39685941  0.09856693     2.70070
O2987       O  0.89641888  0.41738938  0.06243809    -0.79670
O2988       O  0.88660632  0.36933206  0.09383101    -0.98750
Zr2989     Zr  0.86635943  0.43548188  0.16445531     2.21500
Zr2990     Zr  0.80209961  0.39303521  0.07560557     2.11130
O2991       O  0.84935969  0.41816752  0.07374888    -2.47440
O2992       O  0.88206499  0.43936292  0.11934364    -0.79460
O2993       O  0.81723610  0.43603702  0.09748432    -0.71660
O2994       O  0.85332108  0.39296017  0.14424007    -2.32620
O2995       O  0.84944543  0.45805477  0.14120015    -2.28820
O2996       O  0.82057881  0.37219160  0.10076898    -0.73420
H2997       H  0.77070165  0.38095295  0.12320168     0.78580
H2998       H  0.86115275  0.38477168  0.15403718     0.79670
H2999       H  0.85406627  0.41884720  0.05479948     0.81890
H3000       H  0.85588729  0.47544735  0.14968947     0.79500
H3001       H  0.81804425  0.32926148  0.13014293     0.42530
H3002       H  0.87295487  0.35215454  0.09876038     0.41500
H3003       H  0.91334395  0.42995669  0.07253185     0.41180
H3004       H  0.88435109  0.46266792  0.04278289     0.39110
H3005       H  0.86129014  0.50693681  0.10508493     0.42250
H3006       H  0.81850541  0.48624837  0.13860022     0.37030
H3007       H  0.77420119  0.41057431  0.18931314     0.43150
H3008       H  0.75866444  0.35883114  0.16899241     0.39560
H3009       H  0.90486331  0.48816438  0.06052203     0.44480
H3010       H  0.79104027  0.47387213  0.15137380     0.43200
H3011       H  0.76511228  0.33821847  0.17911027     0.43340
H3012       H  0.88829069  0.36677280  0.07378803     0.43700
C3013       C  0.93429717  0.02088198  0.16169174    -0.05350
C3014       C  0.95571883  0.02210168  0.17653014    -0.32770
C3015       C  0.97901899  0.04584967  0.18260504     0.36480
C3016       C  0.98098505  0.06843260  0.17344656    -0.05700
C3017       C  0.95833132  0.06745295  0.16200163    -0.32670
C3018       C  0.93528141  0.04392967  0.15574720     0.36380
H3019       H  0.95490507  0.50450655  0.18207671     0.16750
O3020       O  0.50017195  0.04637929  0.19547379    -0.60170
H3021       H  0.95905973  0.08488033  0.15596399     0.16770
O3022       O  0.91390006  0.04362935  0.14355360    -0.60270
H3023       H  0.91803318  0.04663473  0.12404760     0.43760
H3024       H  0.49911205  0.05051730  0.21536325     0.43720
C3025       C  0.68476887  0.26516846  0.11119301    -0.05350
C3026       C  0.70752579  0.26376005  0.10657496    -0.32770
C3027       C  0.73021106  0.28510514  0.09826894     0.36480
C3028       C  0.73052586  0.30844864  0.09438109    -0.05700
C3029       C  0.70728277  0.30938675  0.09764082    -0.32670
C3030       C  0.68453903  0.28797073  0.10593294     0.36380
H3031       H  0.70785890  0.24618217  0.10984187     0.16750
O3032       O  0.75248799  0.28341316  0.09500950    -0.60170
H3033       H  0.70734017  0.32739359  0.09587957     0.16770
O3034       O  0.66259778  0.28999762  0.11024829    -0.60270
H3035       H  0.66453709  0.29676631  0.12990716     0.43760
H3036       H  0.76005358  0.28533547  0.11397025     0.43720
C3037       C  0.64248151  0.15040677  0.24494207    -0.05350
C3038       C  0.66420505  0.16832910  0.26270729    -0.32770
C3039       C  0.67510520  0.15977102  0.28277362     0.36480
C3040       C  0.66516489  0.13301193  0.28441976    -0.05700
C3041       C  0.64488719  0.11539520  0.26533944    -0.32670
C3042       C  0.63328742  0.12373956  0.24632359     0.36380
H3043       H  0.67166586  0.18890057  0.26219039     0.16750
O3044       O  0.69399314  0.17759848  0.30196348    -0.60170
H3045       H  0.63635702  0.09475643  0.26674787     0.16770
O3046       O  0.61244924  0.10540515  0.22942936    -0.60270
H3047       H  0.59709294  0.09893503  0.24100327     0.43760
H3048       H  0.71093456  0.18082312  0.29471714     0.43720
C3049       C  0.63214760  0.15963572  0.03540344    -0.05350
C3050       C  0.61313771  0.14187836  0.01529227    -0.32770
C3051       C  0.61906877  0.12702126  0.49628332     0.36480
C3052       C  0.64452231  0.13026178  0.49676454    -0.05700
C3053       C  0.66408562  0.14947109  0.01557741    -0.32670
C3054       C  0.65792738  0.16379677  0.03511489     0.36380
H3055       H  0.59301861  0.13787140  0.01584536     0.16750
O3056       O  0.59989832  0.10956388  0.47712518    -0.60170
H3057       H  0.68393004  0.15265660  0.01579135     0.16770
O3058       O  0.67655264  0.18006055  0.05543637    -0.60270
H3059       H  0.68372924  0.19766922  0.04936983     0.43760
H3060       H  0.58959879  0.09377105  0.48669644     0.43720
C3061       C  0.62324025  0.45824833  0.01477459    -0.05350
C3062       C  0.65019563  0.47505514  0.01219972    -0.32770
C3063       C  0.65895995  0.99551745  0.99522206     0.36480
C3064       C  0.64066740  0.00005116  0.48107780    -0.05700
C3065       C  0.61374080  0.48231448  0.48247101    -0.32670
C3066       C  0.60506071  0.46157041  0.99888596     0.36380
H3067       H  0.66451613  0.47362265  0.02511932     0.16750
O3068       O  0.68541820  0.01227005  0.49455307    -0.60170
H3069       H  0.59924811  0.48484403  0.47121126     0.16770
O3070       O  0.57861279  0.44622481  0.00155578    -0.60270
H3071       H  0.57305151  0.43083076  0.98809698     0.43760
H3072       H  0.69153249  0.00385208  0.98050435     0.43720
C3073       C  0.64975838  0.48800320  0.23424652    -0.05350
C3074       C  0.64884866  0.47825670  0.25955715    -0.32770
C3075       C  0.65950706  0.99495116  0.28375103     0.36480
C3076       C  0.67050123  0.02211657  0.28312721    -0.05700
C3077       C  0.67297179  0.03189607  0.25729870    -0.32670
C3078       C  0.66288030  0.01499184  0.23293160     0.36380
H3079       H  0.63902329  0.45749482  0.26070857     0.16750
O3080       O  0.65766806  0.48418874  0.30806373    -0.60170
H3081       H  0.68138515  0.05251882  0.25606282     0.16770
O3082       O  0.66427212  0.02494317  0.20818567    -0.60270
H3083       H  0.68030579  0.02631228  0.20023537     0.43760
H3084       H  0.67465562  0.48470721  0.31112189     0.43720
C3085       C  0.59308163  0.02340652  0.17042149    -0.05350
C3086       C  0.57018359  0.02316976  0.17866620    -0.32770
C3087       C  0.56872482  0.04597634  0.18073042     0.36480
C3088       C  0.59086055  0.06962882  0.17598467    -0.05700
C3089       C  0.61459551  0.07012781  0.17071975    -0.32670
C3090       C  0.61574475  0.04724242  0.16771047     0.36380
H3091       H  0.55284734  0.50497447  0.18148313     0.16750
O3092       O  0.54503065  0.04449413  0.18477104    -0.60170
H3093       H  0.63196148  0.08819765  0.16723757     0.16770
O3094       O  0.63877407  0.04821777  0.16094934    -0.60270
H3095       H  0.64956772  0.05343579  0.17859716     0.43760
H3096       H  0.53630082  0.04068227  0.16603318     0.43720
C3097       C  0.57649210  0.30851264  0.09830391    -0.05350
C3098       C  0.55490355  0.28749828  0.10883960    -0.32770
C3099       C  0.55572815  0.26535809  0.11492747     0.36480
C3100       C  0.57815024  0.26328868  0.10983473    -0.05700
C3101       C  0.59878983  0.28314899  0.09676734    -0.32670
C3102       C  0.59820769  0.30575610  0.09128010     0.36380
H3103       H  0.53785056  0.28901621  0.11422389     0.16750
O3104       O  0.53445058  0.24583107  0.12596892    -0.60170
H3105       H  0.61604492  0.28178638  0.09216461     0.16770
O3106       O  0.61989694  0.32586910  0.08154446    -0.60270
H3107       H  0.61671032  0.32312292  0.06119342     0.43760
H3108       H  0.53577862  0.25189042  0.14578508     0.43720
C3109       C  0.67612706  0.39943521  0.09029178    -0.05350
C3110       C  0.69231344  0.41023225  0.06842704    -0.32770
C3111       C  0.71641451  0.41043011  0.06676058     0.36480
C3112       C  0.72417128  0.39936427  0.08685086    -0.05700
C3113       C  0.70688109  0.38682138  0.10722367    -0.32670
C3114       C  0.68318439  0.38681815  0.10906647     0.36380
H3115       H  0.68726644  0.42017681  0.05392269     0.16750
O3116       O  0.73296552  0.42302812  0.04673303    -0.60170
H3117       H  0.71258358  0.37833497  0.12293969     0.16770
O3118       O  0.66786947  0.37601778  0.13059919    -0.60270
H3119       H  0.65646781  0.35742331  0.12409114     0.43760
H3120       H  0.74392114  0.44124631  0.05482310     0.43720
C3121       C  0.98757498  0.42426917  0.16978045    -0.05350
C3122       C  0.96429109  0.40178419  0.17477170    -0.32770
C3123       C  0.94001677  0.40059442  0.17133844     0.36480
C3124       C  0.93908063  0.42225228  0.16343203    -0.05700
C3125       C  0.96237135  0.44524927  0.16039594    -0.32670
C3126       C  0.98664143  0.44632874  0.16323143     0.36380
H3127       H  0.96478831  0.38448745  0.17905638     0.16750
O3128       O  0.91730112  0.37792298  0.17449511    -0.60170
H3129       H  0.96160742  0.46173553  0.15358579     0.16770
O3130       O  0.00883210  0.46752280  0.15567492    -0.60270
H3131       H  0.00942404  0.48284354  0.16589807     0.43760
H3132       H  0.91276295  0.36767780  0.15622044     0.43720
C3133       C  0.98373437  0.12922375  0.49424513    -0.05350
C3134       C  0.98737677  0.15147101  0.01043731    -0.32770
C3135       C  0.50879493  0.16503639  0.02997546     0.36480
C3136       C  0.52750592  0.15704843  0.03284915    -0.05700
C3137       C  0.52483099  0.13598780  0.01543017    -0.32670
C3138       C  0.00309343  0.12191280  0.49662472     0.36380
H3139       H  0.97303964  0.15775186  0.00870051     0.16750
O3140       O  0.51001299  0.18460075  0.04778791    -0.60170
H3141       H  0.53855203  0.12903078  0.01805096     0.16770
O3142       O  0.00112272  0.10107637  0.48057233    -0.60270
H3143       H  0.49336851  0.08647004  0.49226663     0.43760
H3144       H  0.02250296  0.20083742  0.03997373     0.43720
C3145       C  0.50948324  0.15011845  0.24278689    -0.05350
C3146       C  0.50514360  0.16853467  0.25816577    -0.32770
C3147       C  0.98559598  0.16081987  0.27763708     0.36480
C3148       C  0.96932327  0.13433386  0.28112346    -0.05700
C3149       C  0.97262751  0.11608162  0.26450477    -0.32670
C3150       C  0.99241888  0.12364754  0.24579236     0.36380
H3151       H  0.51783221  0.18898325  0.25619311     0.16750
O3152       O  0.98392256  0.17933900  0.29451929    -0.60170
H3153       H  0.96093479  0.09568297  0.26748221     0.16770
O3154       O  0.99545191  0.10487083  0.23115247    -0.60270
H3155       H  0.97878392  0.09421208  0.21974731     0.43760
H3156       H  0.46987586  0.18136520  0.28553697     0.43720
C3157       C  0.85747962  0.00166670  0.47741228    -0.05350
C3158       C  0.83452888  0.47729083  0.47062798    -0.32770
C3159       C  0.82371159  0.45866095  0.49018644     0.36480
C3160       C  0.83549642  0.46439683  0.01722300    -0.05700
C3161       C  0.85810708  0.48891161  0.02358312    -0.32670
C3162       C  0.86910920  0.00706796  0.00430083     0.36380
H3163       H  0.82522427  0.47249580  0.45000032     0.16750
O3164       O  0.80162379  0.43523945  0.48269627    -0.60170
H3165       H  0.86785765  0.49420856  0.04386497     0.16770
O3166       O  0.89088446  0.03063215  0.01243206    -0.60270
H3167       H  0.90591679  0.02743785  0.01197624     0.43760
H3168       H  0.78670741  0.43782597  0.48758057     0.43720
C3169       C  0.85931696  0.02703318  0.27117255    -0.05350
C3170       C  0.83608103  0.50274346  0.26916634    -0.32770
C3171       C  0.83021482  0.48436908  0.24650363     0.36480
C3172       C  0.84777828  0.48994712  0.22544145    -0.05700
C3173       C  0.87053444  0.01449064  0.22682130    -0.32670
C3174       C  0.87621094  0.03309489  0.24929297     0.36380
H3175       H  0.82304695  0.49748524  0.28596237     0.16750
O3176       O  0.80798102  0.46050794  0.24586144    -0.60170
H3177       H  0.88422133  0.01904332  0.21066517     0.16770
O3178       O  0.89950258  0.05611561  0.25087670    -0.60270
H3179       H  0.89544563  0.06814264  0.24182586     0.43760
H3180       H  0.81351343  0.44953552  0.25496771     0.43720
C3181       C  0.56313432  0.08115482  0.42453931    -0.05350
C3182       C  0.56328516  0.10366457  0.41815631    -0.32770
C3183       C  0.54040284  0.10499748  0.41836765     0.36480
C3184       C  0.51685873  0.08349628  0.42498428    -0.05700
C3185       C  0.51762279  0.06275377  0.43577122    -0.32670
C3186       C  0.54079537  0.06139779  0.43550613     0.36380
H3187       H  0.58090135  0.11978853  0.41142662     0.16750
O3188       O  0.54100004  0.12705267  0.41116340    -0.60170
H3189       H  0.99993225  0.04680563  0.44247340     0.16770
O3190       O  0.54120490  0.04045636  0.44477833    -0.60270
H3191       H  0.52693521  0.02493068  0.43390326     0.43760
H3192       H  0.54343123  0.12717298  0.39104858     0.43720
C3193       C  0.81133785  0.07290998  0.35440892    -0.05350
C3194       C  0.79888052  0.06692381  0.37910593    -0.32770
C3195       C  0.77643888  0.06851034  0.38331293     0.36480
C3196       C  0.76536458  0.07590389  0.36220876    -0.05700
C3197       C  0.77812253  0.08237290  0.33739527    -0.32670
C3198       C  0.80122366  0.08121881  0.33355305     0.36380
H3199       H  0.80706673  0.06168287  0.39585651     0.16750
O3200       O  0.76628284  0.06382993  0.40879170    -0.60170
H3201       H  0.77021898  0.08826806  0.32098283     0.16770
O3202       O  0.81322476  0.08743471  0.30917019    -0.60270
H3203       H  0.82455300  0.10656294  0.31139254     0.43760
H3204       H  0.75676904  0.04470364  0.40885134     0.43720
C3205       C  0.96968987  0.32387993  0.48160796    -0.05350
C3206       C  0.97392700  0.34714466  0.49533755    -0.32770
C3207       C  0.49565827  0.36206101  0.01374785     0.36480
C3208       C  0.51298767  0.35304993  0.02088357    -0.05700
C3209       C  0.50856789  0.32932388  0.00765729    -0.32670
C3210       C  0.98741669  0.31509057  0.48760254     0.36380
H3211       H  0.96154963  0.35504261  0.48989901     0.16750
O3212       O  0.50003515  0.38591063  0.02447666    -0.60170
H3213       H  0.52132886  0.32182284  0.01288359     0.16770
O3214       O  0.98472805  0.29313193  0.47331477    -0.60270
H3215       H  0.97186241  0.27862297  0.48326774     0.43760
H3216       H  0.51299817  0.39844378  0.01268754     0.43720
C3217       C  0.52007618  0.37574315  0.23228963    -0.05350
C3218       C  0.00554211  0.38807894  0.23860080    -0.32770
C3219       C  0.98650144  0.37906712  0.25790602     0.36480
C3220       C  0.98212262  0.35765574  0.27214065    -0.05700
C3221       C  0.99612331  0.34476003  0.26514681    -0.32670
C3222       C  0.51475943  0.35347021  0.24513394     0.36380
H3223       H  0.50861980  0.40464063  0.22812192     0.16750
O3224       O  0.97251762  0.39161708  0.26278803    -0.60170
H3225       H  0.99313785  0.32826001  0.27565350     0.16770
O3226       O  0.52850736  0.34084258  0.23926977    -0.60270
H3227       H  0.51698846  0.32607029  0.22556212     0.43760
H3228       H  0.95679723  0.38241374  0.24971003     0.43720
C3229       C  0.92414718  0.43844767  0.37591852    -0.05350
C3230       C  0.94620294  0.46049086  0.38879128    -0.32770
C3231       C  0.94411902  0.48184484  0.39880977     0.36480
C3232       C  0.91972363  0.48065677  0.39620357    -0.05700
C3233       C  0.89757419  0.45811045  0.38418972    -0.32670
C3234       C  0.89982548  0.43729907  0.37347149     0.36380
H3235       H  0.96463869  0.46074518  0.39189499     0.16750
O3236       O  0.96606681  0.00406252  0.40974259    -0.60170
H3237       H  0.87877879  0.45728552  0.38169912     0.16770
O3238       O  0.87786573  0.41527568  0.36198954    -0.60270
H3239       H  0.87868031  0.41641797  0.34178581     0.43760
H3240       H  0.96783468  0.50134194  0.42931145     0.43720
C3241       C  0.90955173  0.22570157  0.37898658    -0.05350
C3242       C  0.88842595  0.20425640  0.38911723    -0.32770
C3243       C  0.88674118  0.18002378  0.38572617     0.36480
C3244       C  0.90625410  0.17727014  0.37203793    -0.05700
C3245       C  0.92723970  0.19851696  0.36194527    -0.32670
C3246       C  0.92910210  0.22268056  0.36539263     0.36380
H3247       H  0.87320068  0.20624328  0.39938421     0.16750
O3248       O  0.86649040  0.15932578  0.39655033    -0.60170
H3249       H  0.94287450  0.19662264  0.35249670     0.16770
O3250       O  0.95087302  0.24353956  0.35672704    -0.60270
H3251       H  0.94841124  0.24147543  0.33630683     0.43760
H3252       H  0.85305295  0.15004692  0.38102788     0.43720
C3253       C  0.51795040  0.42990157  0.38057953    -0.05350
C3254       C  0.51597961  0.45239497  0.38031057    -0.32770
C3255       C  0.53638601  0.47631890  0.39173441     0.36480
C3256       C  0.55897129  0.47779260  0.40374487    -0.05700
C3257       C  0.56043397  0.45529297  0.40557504    -0.32670
C3258       C  0.54030488  0.43145726  0.39376209     0.36380
H3259       H  0.49892928  0.45168324  0.37049321     0.16750
O3260       O  0.53565925  0.99854271  0.38805198    -0.60170
H3261       H  0.57836964  0.45661219  0.41380414     0.16770
O3262       O  0.54344625  0.41021470  0.39395591    -0.60270
H3263       H  0.55199119  0.40975688  0.37667814     0.43760
H3264       H  0.51891392  0.99593944  0.39529088     0.43720
C3265       C  0.76616122  0.18037616  0.37473110    -0.05350
C3266       C  0.76568532  0.20350388  0.38033848    -0.32770
C3267       C  0.78896639  0.22719432  0.38352479     0.36480
C3268       C  0.81312250  0.22788844  0.38157092    -0.05700
C3269       C  0.81375159  0.20484553  0.37580006    -0.32670
C3270       C  0.79029713  0.18104496  0.37211024     0.36380
H3271       H  0.74717465  0.20309645  0.38279780     0.16750
O3272       O  0.78799211  0.24960587  0.38874268    -0.60170
H3273       H  0.83235893  0.20537964  0.37380497     0.16770
O3274       O  0.79119235  0.15854614  0.36763113    -0.60270
H3275       H  0.79062749  0.15524768  0.34729137     0.43760
H3276       H  0.79008888  0.25329877  0.40911836     0.43720
C3277       C  0.82723574  0.33613917  0.02279340    -0.05350
C3278       C  0.84180411  0.32365196  0.02835625    -0.32770
C3279       C  0.85142581  0.31386659  0.00704753     0.36480
C3280       C  0.84585894  0.31548137  0.47941645    -0.05700
C3281       C  0.82805190  0.32432408  0.47388936    -0.32670
C3282       C  0.81901234  0.33477503  0.49510760     0.36380
H3283       H  0.84788043  0.32346981  0.04940110     0.16750
O3284       O  0.86841709  0.30530662  0.01356471    -0.60170
H3285       H  0.82344396  0.32583241  0.45271257     0.16770
O3286       O  0.80459907  0.34606873  0.48818817    -0.60270
H3287       H  0.78599904  0.33212571  0.48808606     0.43760
H3288       H  0.88600734  0.32111049  0.01625696     0.43720
C3289       C  0.87256016  0.36160211  0.27594274    -0.05350
C3290       C  0.89017150  0.38441565  0.26451814    -0.32770
C3291       C  0.88228334  0.39295657  0.24245980     0.36480
C3292       C  0.85604949  0.37889721  0.23130601    -0.05700
C3293       C  0.83831999  0.35598475  0.24247637    -0.32670
C3294       C  0.84634076  0.34726491  0.26457643     0.36380
H3295       H  0.91046667  0.39582620  0.27246804     0.16750
O3296       O  0.90072043  0.41489752  0.23164566    -0.60170
H3297       H  0.81816130  0.34475108  0.23405736     0.16770
O3298       O  0.82828104  0.32486640  0.27491130    -0.60270
H3299       H  0.82909220  0.31073874  0.26365471     0.43760
H3300       H  0.90965652  0.40890369  0.21836524     0.43720
O3301       O  0.86611058  0.33302416  0.81046453    -0.75170
O3302       O  0.90667761  0.36796937  0.80751423    -0.54080
C3303       C  0.88229423  0.35356743  0.79945728     0.78560
O3304       O  0.87346399  0.33925491  0.94708167    -0.59770
O3305       O  0.87062787  0.30010874  0.95044622    -0.52800
C3306       C  0.86447513  0.31784368  0.95773170     0.70570
O3307       O  0.91321016  0.40140392  0.89492204    -0.74330
O3308       O  0.93233482  0.40711826  0.85365148    -0.54890
C3309       C  0.92363809  0.41426012  0.87448654     0.76570
O3310       O  0.83841780  0.26706734  0.86354382    -0.59470
O3311       O  0.85513219  0.25868759  0.90178717    -0.52590
C3312       C  0.83726008  0.25281750  0.88251121     0.73170
Zr3313     Zr  0.86805866  0.30848024  0.84733980     2.54710
O3314       O  0.82767095  0.30979148  0.85339033    -0.80040
O3315       O  0.84963082  0.27683363  0.80697602    -0.93460
Zr3316     Zr  0.90082320  0.36068920  0.91135112     2.64680
O3317       O  0.86369392  0.36822856  0.91017815    -0.98410
O3318       O  0.92064911  0.39046221  0.95292333    -0.80470
O3319       O  0.89273959  0.35295803  0.86294982    -0.83830
O3320       O  0.87444724  0.31629617  0.89606120    -2.18540
O3321       O  0.91965834  0.26332830  0.85932424    -0.67220
O3322       O  0.90240371  0.25833101  0.90177563    -0.51790
C3323       C  0.91042355  0.25070576  0.88036651     0.71550
O3324       O  0.99439058  0.38388094  0.87434133    -0.60130
O3325       O  0.97713561  0.40520064  0.85499694    -0.52110
C3326       C  0.99567260  0.40504286  0.86889523     0.73350
O3327       O  0.96854970  0.32630143  0.93486001    -0.71520
O3328       O  0.92897915  0.30514327  0.95310676    -0.50200
C3329       C  0.95443704  0.31647721  0.95489917     0.74730
O3330       O  0.95782280  0.32809803  0.80483944    -0.66850
O3331       O  0.95826485  0.36643152  0.80563664    -0.54050
C3332       C  0.96470168  0.35004485  0.79547557     0.73120
Zr3333     Zr  0.93257608  0.30454117  0.84269952     2.77540
O3334       O  0.97290729  0.30242244  0.84192097    -0.97600
O3335       O  0.91180162  0.27304285  0.80257630    -0.78420
Zr3336     Zr  0.96532061  0.35614061  0.90689951     2.70070
O3337       O  0.00953208  0.36552281  0.92017161    -0.79670
O3338       O  0.97931101  0.39143526  0.94348915    -0.98750
Zr3339     Zr  0.93445705  0.36819203  0.84451008     2.21500
Zr3340     Zr  0.89811307  0.29660050  0.91275267     2.11130
O3341       O  0.93923984  0.31139664  0.89145156    -2.47440
O3342       O  0.95902763  0.34865460  0.85819195    -0.79460
O3343       O  0.89181992  0.28922564  0.86320944    -0.71660
O3344       O  0.94248717  0.37710266  0.89349929    -2.32620
O3345       O  0.90893361  0.32393292  0.82713805    -2.28820
O3346       O  0.92456426  0.34147851  0.92796591    -0.73420
H3347       H  0.85721973  0.30910927  0.90318926     0.78580
H3348       H  0.95301711  0.39541835  0.89922367     0.79670
H3349       H  0.94722789  0.30129854  0.89591838     0.81890
H3350       H  0.90681986  0.32184473  0.80722881     0.79500
H3351       H  0.93536559  0.40628472  0.94652663     0.42530
H3352       H  0.96476013  0.38525759  0.95604063     0.41500
H3353       H  0.51364824  0.35586678  0.90551099     0.41180
H3354       H  0.97420026  0.29586450  0.85958659     0.39110
H3355       H  0.89297325  0.26334613  0.80639548     0.42250
H3356       H  0.86128974  0.28524731  0.79205506     0.37030
H3357       H  0.83346754  0.32848233  0.85656495     0.43150
H3358       H  0.84791813  0.35073357  0.90847769     0.39560
H3359       H  0.96910829  0.28811294  0.82760636     0.44480
H3360       H  0.83300543  0.27631938  0.80176859     0.43200
H3361       H  0.86376726  0.37575157  0.92905116     0.43340
H3362       H  0.99386882  0.39157481  0.95415536     0.43700
O3363       O  0.91570973  0.15169019  0.89738208    -0.75170
O3364       O  0.90295650  0.13865431  0.85152270    -0.54080
C3365       C  0.90816234  0.15416259  0.87354558     0.78560
O3366       O  0.99174153  0.09266875  0.89532365    -0.59770
O3367       O  0.97151594  0.06821287  0.93045199    -0.52800
C3368       C  0.99168174  0.08134349  0.91671044     0.70570
O3369       O  0.96943101  0.12116816  0.82436408    -0.74330
O3370       O  0.93154601  0.11945551  0.80918610    -0.54890
C3371       C  0.95581716  0.12529844  0.80681296     0.76570
O3372       O  0.95452948  0.12953361  0.96045668    -0.59470
O3373       O  0.95246191  0.09101711  0.96627351    -0.52590
C3374       C  0.96159706  0.11549368  0.97288691     0.73170
Zr3375     Zr  0.92688251  0.12338880  0.91938556     2.54710
O3376       O  0.96298853  0.16789807  0.92667157    -0.80040
O3377       O  0.90257788  0.13135730  0.95517839    -0.93460
Zr3378     Zr  0.96328462  0.10056013  0.86623589     2.64680
O3379       O  0.00127311  0.14382614  0.87580872    -0.98410
O3380       O  0.98666038  0.08511908  0.83664206    -0.80470
O3381       O  0.93873274  0.12197078  0.87278835    -0.83830
O3382       O  0.95275845  0.10372718  0.91201070    -2.18540
O3383       O  0.85544913  0.02490450  0.93985314    -0.67220
O3384       O  0.89554297  0.03328762  0.95702126    -0.51790
C3385       C  0.87018354  0.02114019  0.95672634     0.71550
O3386       O  0.86436823  0.02954145  0.81928804    -0.60130
O3387       O  0.88140672  0.06746761  0.80078559    -0.52110
C3388       C  0.86853320  0.04247392  0.79845652     0.73350
O3389       O  0.90820550  0.00606903  0.87458849    -0.71520
O3390       O  0.92709574  0.02066325  0.91826420    -0.50200
C3391       C  0.91828764  0.00404381  0.89696461     0.74730
O3392       O  0.83678223  0.05357121  0.86385815    -0.66850
O3393       O  0.85537896  0.08972839  0.84157296    -0.54050
C3394       C  0.83578194  0.07193762  0.85272932     0.73120
Zr3395     Zr  0.86248671  0.05596133  0.90521020     2.77540
O3396       O  0.81604064  0.02421894  0.90716616    -0.97600
O3397       O  0.84894532  0.08109870  0.93540544    -0.78420
Zr3398     Zr  0.89824644  0.03386210  0.85141459     2.70070
O3399       O  0.86719321  0.48819511  0.83838550    -0.79670
O3400       O  0.92063005  0.02751044  0.81246503    -0.98750
Zr3401     Zr  0.89941837  0.09646135  0.84392845     2.21500
Zr3402     Zr  0.92739988  0.06114308  0.92568989     2.11130
O3403       O  0.88732370  0.03494069  0.89791972    -2.47440
O3404       O  0.87302321  0.05395607  0.85843635    -0.79460
O3405       O  0.90154451  0.08128359  0.93423653    -0.71660
O3406       O  0.92461507  0.07551412  0.83725542    -2.32620
O3407       O  0.88756146  0.09839777  0.89121395    -2.28820
O3408       O  0.93800550  0.05799248  0.87887996    -0.73420
H3409       H  0.96953996  0.11361559  0.92218685     0.78580
H3410       H  0.92846719  0.07427589  0.81817721     0.79670
H3411       H  0.87799117  0.01730223  0.90263609     0.81890
H3412       H  0.87683207  0.10646206  0.89280653     0.79500
H3413       H  0.97317523  0.07262713  0.82241456     0.42530
H3414       H  0.92449525  0.01393844  0.81748087     0.41500
H3415       H  0.85336385  0.98362305  0.85173277     0.41180
H3416       H  0.81485798  0.00710307  0.90374323     0.39110
H3417       H  0.85019448  0.07615395  0.95407209     0.42250
H3418       H  0.88992899  0.13464629  0.94509974     0.37030
H3419       H  0.97643438  0.16832721  0.91436875     0.43150
H3420       H  0.00619274  0.14537124  0.89568248     0.39560
H3421       H  0.81208982  0.02541280  0.92674192     0.44480
H3422       H  0.91544606  0.14844214  0.96478066     0.43200
H3423       H  0.51557727  0.14292533  0.86622068     0.43340
H3424       H  0.90677675  0.01884727  0.79728227     0.43700
O3425       O  0.50688498  0.40753472  0.64011720    -0.75170
O3426       O  0.53216738  0.43505870  0.67727818    -0.54080
C3427       C  0.51038194  0.42190900  0.66251078     0.78560
O3428       O  0.57091501  0.33846982  0.62598238    -0.59770
O3429       O  0.58620613  0.35052882  0.58365897    -0.52800
C3430       C  0.57807927  0.33427236  0.60234485     0.70570
O3431       O  0.54140209  0.36934140  0.69411686    -0.74330
O3432       O  0.55143672  0.41041909  0.70964208    -0.54890
C3433       C  0.53928726  0.38579026  0.71099976     0.76570
O3434       O  0.52234928  0.37512081  0.56417808    -0.59470
O3435       O  0.55564178  0.37047705  0.54666770    -0.52590
C3436       C  0.53193059  0.36687722  0.54527165     0.73170
Zr3437     Zr  0.53348321  0.39956047  0.60809162     2.54710
O3438       O  0.99040494  0.36085690  0.60726401    -0.80040
O3439       O  0.51645846  0.42123297  0.58094004    -0.93460
Zr3440     Zr  0.56603398  0.37062765  0.65385311     2.64680
O3441       O  0.52643023  0.32851705  0.65451781    -0.98410
O3442       O  0.58981466  0.36003222  0.68700757    -0.80470
O3443       O  0.54436676  0.39474340  0.65295569    -0.83830
O3444       O  0.55364038  0.37367968  0.60812754    -2.18540
O3445       O  0.61348109  0.46189056  0.55967098    -0.67220
O3446       O  0.60904351  0.42270452  0.54388210    -0.51790
C3447       C  0.61482126  0.44639326  0.54100516     0.71550
O3448       O  0.64650804  0.46343241  0.69226628    -0.60130
O3449       O  0.60946360  0.46157119  0.70901629    -0.52110
C3450       C  0.63432748  0.46985573  0.71021305     0.73350
O3451       O  0.65669589  0.41610738  0.62106328    -0.71520
O3452       O  0.63510334  0.39728234  0.57885532    -0.50200
C3453       C  0.65455145  0.40472464  0.59677823     0.74730
O3454       O  0.60064109  0.49662011  0.63790312    -0.66850
O3455       O  0.58158742  0.48050521  0.67763913    -0.54050
C3456       C  0.59204370  0.49869588  0.66166439     0.73120
Zr3457     Zr  0.60190419  0.46309757  0.60641604     2.77540
O3458       O  0.64610899  0.50022607  0.60693236    -0.97600
O3459       O  0.58239950  0.48327445  0.58040138    -0.78420
Zr3460     Zr  0.63442089  0.43317696  0.65048779     2.70070
O3461       O  0.67791381  0.46928993  0.64430140    -0.79670
O3462       O  0.65107640  0.41490316  0.68292091    -0.98750
Zr3463     Zr  0.57441805  0.43696011  0.67356719     2.21500
Zr3464     Zr  0.59238232  0.39492109  0.58283947     2.11130
O3465       O  0.62271738  0.43752340  0.60507539    -2.47440
O3466       O  0.61415837  0.45890712  0.65093543    -0.79460
O3467       O  0.57202170  0.42118179  0.58392767    -0.71660
O3468       O  0.59612077  0.41221010  0.67572368    -2.32620
O3469       O  0.56233799  0.44189614  0.62863415    -2.29180
O3470       O  0.60432112  0.39139025  0.62900834    -0.73420
H3471       H  0.54180853  0.35647540  0.59941339     0.78580
H3472       H  0.60055476  0.41121014  0.69460506     0.79670
H3473       H  0.63836602  0.44560086  0.59491884     0.81890
H3474       H  0.55371972  0.45210107  0.62927079     0.79500
H3475       H  0.57634121  0.34908901  0.69940030     0.42530
H3476       H  0.64446858  0.39685698  0.67487279     0.41500
H3477       H  0.67519807  0.48430827  0.64338232     0.41180
H3478       H  0.65609365  0.49392339  0.59574031     0.39110
H3479       H  0.57347801  0.47107060  0.56374089     0.42250
H3480       H  0.53072446  0.43135532  0.56889249     0.37030
H3481       H  0.99358984  0.34846901  0.61667694     0.43150
H3482       H  0.52044312  0.32222875  0.63489904     0.39560
H3483       H  0.64420008  0.01227927  0.59551820     0.44480
H3484       H  0.51596478  0.43443009  0.59414231     0.43200
H3485       H  0.53259056  0.31696081  0.66086232     0.43340
H3486       H  0.67023600  0.42374862  0.68066350     0.43700
O3487       O  0.64962414  0.11799307  0.82637361    -0.75170
O3488       O  0.68634113  0.11668072  0.81385145    -0.54080
C3489       C  0.66810257  0.12262235  0.81014952     0.78560
O3490       O  0.67226202  0.13011049  0.96296682    -0.59770
O3491       O  0.63566412  0.09162160  0.96930348    -0.52800
C3492       C  0.65148828  0.11614593  0.97547329     0.70570
O3493       O  0.73024653  0.15480452  0.89901954    -0.74330
O3494       O  0.73403392  0.13780257  0.85673903    -0.54890
C3495       C  0.74185505  0.15599310  0.87663890     0.76570
O3496       O  0.59661709  0.08873111  0.89509311    -0.59470
O3497       O  0.59312507  0.06632072  0.93217502    -0.52590
C3498       C  0.58564441  0.07831013  0.91691513     0.73170
Zr3499     Zr  0.63287485  0.09572426  0.86689021     2.54710
O3500       O  0.63126903  0.13577139  0.87131920    -0.80040
O3501       O  0.59475827  0.07385350  0.83410163    -0.93460
Zr3502     Zr  0.69288136  0.12465700  0.92227835     2.64680
O3503       O  0.69713324  0.16751181  0.92561787    -0.98410
O3504       O  0.72802660  0.13774412  0.95770870    -0.80470
O3505       O  0.67920821  0.11936107  0.87485690    -0.83830
O3506       O  0.64690948  0.10230891  0.91371363    -2.18540
O3507       O  0.59573417  0.00295534  0.88150919    -0.67220
O3508       O  0.59125506  0.01928528  0.92374685    -0.51790
C3509       C  0.58360216  0.00166680  0.90343685     0.71550
O3510       O  0.72856772  0.06610001  0.88761432    -0.60130
O3511       O  0.73344530  0.08811885  0.84999246    -0.52110
C3512       C  0.74084000  0.07677269  0.86655702     0.73350
O3513       O  0.66979720  0.02896827  0.95033029    -0.71520
O3514       O  0.63408434  0.03233459  0.96200398    -0.50200
C3515       C  0.64900373  0.02221690  0.96383439     0.74730
O3516       O  0.66655794  0.02801587  0.83098725    -0.66850
O3517       O  0.68648523  0.06402157  0.80931256    -0.54050
C3518       C  0.67524833  0.03918671  0.80912808     0.73120
Zr3519     Zr  0.63420391  0.03099409  0.85851342     2.77540
O3520       O  0.62246587  0.48572000  0.84899397    -0.97600
O3521       O  0.60596796  0.02127943  0.81703029    -0.78420
Zr3522     Zr  0.69254621  0.05914780  0.91566321     2.70070
O3523       O  0.70204860  0.02385018  0.91524159    -0.79670
O3524       O  0.72653786  0.08317697  0.95260153    -0.98750
Zr3525     Zr  0.69564409  0.09471535  0.85029780     2.21500
Zr3526     Zr  0.63094925  0.06082926  0.93026909     2.11130
O3527       O  0.64663029  0.03557368  0.90572889    -2.47440
O3528       O  0.68003908  0.05356217  0.86794136    -0.79460
O3529       O  0.61680178  0.05446950  0.88256981    -0.71660
O3530       O  0.70924140  0.10022104  0.89848153    -2.32620
O3531       O  0.64897134  0.07159509  0.84143464    -2.28820
O3532       O  0.67723900  0.08407986  0.94080341    -0.73420
H3533       H  0.63973672  0.11209432  0.92292130     0.78580
H3534       H  0.72817626  0.10948123  0.90105571     0.79670
H3535       H  0.63893099  0.01821573  0.91115833     0.81890
H3536       H  0.64419695  0.06950158  0.82195549     0.79500
H3537       H  0.74319291  0.13953192  0.94749125     0.42530
H3538       H  0.71759212  0.07686960  0.96973759     0.41500
H3539       H  0.69015917  0.01107729  0.90011163     0.41180
H3540       H  0.62218370  0.47946166  0.86730027     0.39110
H3541       H  0.58908145  0.01843284  0.82400735     0.42250
H3542       H  0.60170857  0.07118437  0.81651105     0.37030
H3543       H  0.64872701  0.14894253  0.87991139     0.43150
H3544       H  0.67899093  0.16434951  0.92702124     0.39560
H3545       H  0.60388587  0.47644759  0.84173364     0.44480
H3546       H  0.59003180  0.08725994  0.83095623     0.43200
H3547       H  0.70597568  0.17577361  0.94403956     0.43340
H3548       H  0.73846939  0.07597004  0.95079027     0.43700
O3549       O  0.53617537  0.17642044  0.70832479    -0.75170
O3550       O  0.54345516  0.14479334  0.72256275    -0.54080
C3551       C  0.53138720  0.15795198  0.72362277     0.78560
O3552       O  0.52915934  0.14538469  0.57607074    -0.59770
O3553       O  0.56573327  0.18141256  0.56443237    -0.52800
C3554       C  0.54202956  0.16223740  0.55949374     0.70570
O3555       O  0.50653607  0.10193964  0.64770106    -0.74330
O3556       O  0.52643674  0.09971780  0.68702049    -0.54890
C3557       C  0.50642781  0.09159560  0.66972888     0.76570
O3558       O  0.57107871  0.23234296  0.64201915    -0.59470
O3559       O  0.59101263  0.23139240  0.60236365    -0.52590
C3560       C  0.58025597  0.24092120  0.61864448     0.73170
Zr3561     Zr  0.56676786  0.19908590  0.67250952     2.54710
O3562       O  0.53175062  0.20948345  0.67673957    -0.80040
O3563       O  0.59191160  0.23472055  0.70797395    -0.93460
Zr3564     Zr  0.53537174  0.13547581  0.62101879     2.64680
O3565       O  0.99479295  0.13715141  0.62218343    -0.98410
O3566       O  0.51512574  0.09533920  0.59053158    -0.80470
O3567       O  0.54389865  0.15317594  0.66722147    -0.83830
O3568       O  0.55695204  0.18116525  0.62553743    -2.18540
O3569       O  0.66256394  0.23408656  0.64361456    -0.67220
O3570       O  0.64051435  0.23228889  0.60358046    -0.51790
C3571       C  0.66108045  0.24244488  0.62019709     0.71550
O3572       O  0.60025018  0.10358318  0.64960891    -0.60130
O3573       O  0.57572186  0.10004294  0.68656981    -0.52110
C3574       C  0.58874427  0.09262730  0.67080473     0.73350
O3575       O  0.62009499  0.14816364  0.57864967    -0.71520
O3576       O  0.61635056  0.18208971  0.56537263    -0.50200
C3577       C  0.62262465  0.16425367  0.56153060     0.74730
O3578       O  0.64232075  0.17729645  0.71035968    -0.66850
O3579       O  0.60323490  0.14548163  0.72397569    -0.54050
C3580       C  0.62858814  0.15870230  0.72551506     0.73120
Zr3581     Zr  0.63428304  0.20014821  0.67390197     2.77540
O3582       O  0.67990112  0.21067001  0.68006697    -0.97600
O3583       O  0.64462131  0.23553640  0.70923573    -0.78420
Zr3584     Zr  0.60290261  0.13657846  0.62253198     2.70070
O3585       O  0.64594567  0.13995895  0.62391979    -0.79670
O3586       O  0.58201995  0.09619722  0.59242235    -0.98750
Zr3587     Zr  0.57018947  0.13839211  0.68833723     2.21500
Zr3588     Zr  0.59759044  0.19455397  0.60440276     2.11130
O3589       O  0.62588720  0.18236809  0.62687924    -2.47440
O3590       O  0.61167623  0.15423991  0.66873967    -0.79460
O3591       O  0.60732737  0.21351491  0.65152535    -0.71660
O3592       O  0.56154848  0.12069904  0.64147575    -2.32620
O3593       O  0.59339783  0.18521436  0.69525251    -2.28820
O3594       O  0.57532488  0.14860488  0.59969910    -0.73420
H3595       H  0.54632638  0.18673168  0.61609454     0.78580
H3596       H  0.55234785  0.10198372  0.63987300     0.79670
H3597       H  0.64220201  0.18844418  0.61791425     0.81890
H3598       H  0.59626175  0.19102183  0.71472071     0.79500
H3599       H  0.52734828  0.08852271  0.59201129     0.42530
H3600       H  0.57480969  0.10005774  0.57608801     0.41500
H3601       H  0.65586409  0.15296067  0.63974750     0.41180
H3602       H  0.68490785  0.20777862  0.66135954     0.39110
H3603       H  0.64899571  0.25059233  0.69876978     0.42250
H3604       H  0.58124084  0.22974898  0.72429845     0.37030
H3605       H  0.51824159  0.19768969  0.66214763     0.43150
H3606       H  0.99871614  0.15325178  0.61398264     0.39560
H3607       H  0.69005969  0.22968353  0.68475126     0.44480
H3608       H  0.59036452  0.24934024  0.70179170     0.43200
H3609       H  0.98257977  0.12299738  0.60830036     0.43340
H3610       H  0.59679596  0.09424687  0.58560626     0.43700
O3611       O  0.82204977  0.46167582  0.68640310    -0.75170
O3612       O  0.86054280  0.46346325  0.69919691    -0.54080
C3613       C  0.84300778  0.47024125  0.70234755     0.78560
O3614       O  0.76908999  0.33666277  0.61992117    -0.59770
O3615       O  0.76308463  0.34935349  0.57849281    -0.52800
C3616       C  0.75604258  0.33302769  0.59708802     0.70570
O3617       O  0.82870883  0.37010587  0.69066751    -0.74330
O3618       O  0.86153796  0.41137828  0.70325261    -0.54890
C3619       C  0.84789937  0.38732855  0.70709132     0.76570
O3620       O  0.76283249  0.41744882  0.61479974    -0.59470
O3621       O  0.76180760  0.39614219  0.57314972    -0.52590
C3622       C  0.75159136  0.40498143  0.59127894     0.73170
Zr3623     Zr  0.80333829  0.43338870  0.64313372     2.54710
O3624       O  0.76810036  0.41736625  0.67470740    -0.80040
O3625       O  0.80025437  0.47161516  0.63546816    -0.93460
Zr3626     Zr  0.80742016  0.36973578  0.64687792     2.64680
O3627       O  0.77254524  0.35713292  0.67878696    -0.98410
O3628       O  0.80750248  0.32897895  0.64592173    -0.80470
O3629       O  0.82020740  0.41165213  0.66824781    -0.83830
O3630       O  0.78955911  0.39097118  0.62265376    -2.18540
O3631       O  0.83066844  0.45857759  0.56461028    -0.67220
O3632       O  0.81314895  0.42179025  0.53686308    -0.51790
C3633       C  0.82534736  0.44694644  0.54031275     0.71550
O3634       O  0.90353964  0.40673980  0.63092235    -0.60130
O3635       O  0.90562251  0.43253816  0.66916054    -0.52110
C3636       C  0.91430245  0.42016024  0.65415545     0.73350
O3637       O  0.84025981  0.35850952  0.56718776    -0.71520
O3638       O  0.81152377  0.36506843  0.54222747    -0.50200
C3639       C  0.82559083  0.35402693  0.54537579     0.74730
O3640       O  0.90008742  0.49326662  0.62812651    -0.66850
O3641       O  0.90392257  0.47782042  0.66825728    -0.54050
C3642       C  0.91131342  0.49570302  0.65206909     0.73120
Zr3643     Zr  0.86383835  0.46056767  0.59615972     2.77540
O3644       O  0.89505107  0.46906962  0.56049996    -0.97600
O3645       O  0.87406567  0.50510597  0.59346596    -0.78420
Zr3646     Zr  0.86683788  0.39685941  0.59856692     2.70070
O3647       O  0.89641887  0.41738937  0.56243808    -0.79670
O3648       O  0.88660633  0.36933207  0.59383096    -0.98750
Zr3649     Zr  0.86635944  0.43548187  0.66445530     2.21500
Zr3650     Zr  0.80209961  0.39303521  0.57560557     2.11130
O3651       O  0.84935969  0.41816752  0.57374887    -2.47440
O3652       O  0.88206499  0.43936292  0.61934363    -0.79460
O3653       O  0.81723610  0.43603702  0.59748432    -0.71660
O3654       O  0.85332108  0.39296016  0.64424006    -2.32620
O3655       O  0.84944543  0.45805477  0.64120015    -2.28820
O3656       O  0.82057881  0.37219160  0.60076897    -0.73420
H3657       H  0.77070165  0.38095295  0.62320168     0.78580
H3658       H  0.86115275  0.38477167  0.65403717     0.79670
H3659       H  0.85406626  0.41884720  0.55479948     0.81890
H3660       H  0.85588730  0.47544735  0.64968947     0.79500
H3661       H  0.81804424  0.32926147  0.63014292     0.42530
H3662       H  0.87295490  0.35215455  0.59876035     0.41500
H3663       H  0.91334395  0.42995669  0.57253183     0.41180
H3664       H  0.88435108  0.46266793  0.54278288     0.39110
H3665       H  0.86129014  0.50693681  0.60508494     0.42250
H3666       H  0.81850542  0.48624837  0.63860022     0.37030
H3667       H  0.77420120  0.41057431  0.68931314     0.43150
H3668       H  0.75866444  0.35883114  0.66899241     0.39560
H3669       H  0.90486330  0.48816439  0.56052202     0.44480
H3670       H  0.79104027  0.47387213  0.65137380     0.43200
H3671       H  0.76511228  0.33821847  0.67911027     0.43340
H3672       H  0.88829068  0.36677281  0.57378798     0.43700
C3673       C  0.93429718  0.02088197  0.66169173    -0.05350
C3674       C  0.95571884  0.02210168  0.67653013    -0.32770
C3675       C  0.97901900  0.04584967  0.68260504     0.36480
C3676       C  0.98098505  0.06843260  0.67344656    -0.05700
C3677       C  0.95833133  0.06745294  0.66200163    -0.32670
C3678       C  0.93528142  0.04392966  0.65574719     0.36380
H3679       H  0.95490508  0.50450654  0.68207670     0.16750
O3680       O  0.50017196  0.04637928  0.69547379    -0.60170
H3681       H  0.95905973  0.08488032  0.65596398     0.16770
O3682       O  0.91390007  0.04362935  0.64355359    -0.60270
H3683       H  0.91803318  0.04663473  0.62404759     0.43760
H3684       H  0.49911206  0.05051730  0.71536324     0.43720
C3685       C  0.68476888  0.26516846  0.61119301    -0.05350
C3686       C  0.70752579  0.26376005  0.60657496    -0.32770
C3687       C  0.73021106  0.28510514  0.59826894     0.36480
C3688       C  0.73052586  0.30844864  0.59438109    -0.05700
C3689       C  0.70728277  0.30938675  0.59764081    -0.32670
C3690       C  0.68453904  0.28797073  0.60593294     0.36380
H3691       H  0.70785890  0.24618217  0.60984187     0.16750
O3692       O  0.75248800  0.28341316  0.59500950    -0.60170
H3693       H  0.70734017  0.32739359  0.59587957     0.16770
O3694       O  0.66259778  0.28999762  0.61024828    -0.60270
H3695       H  0.66453709  0.29676631  0.62990716     0.43760
H3696       H  0.76005358  0.28533547  0.61397026     0.43720
C3697       C  0.64248151  0.15040677  0.74494207    -0.05350
C3698       C  0.66420505  0.16832910  0.76270728    -0.32770
C3699       C  0.67510520  0.15977102  0.78277362     0.36480
C3700       C  0.66516489  0.13301193  0.78441977    -0.05700
C3701       C  0.64488719  0.11539520  0.76533944    -0.32670
C3702       C  0.63328742  0.12373956  0.74632360     0.36380
H3703       H  0.67166587  0.18890057  0.76219039     0.16750
O3704       O  0.69399315  0.17759848  0.80196348    -0.60170
H3705       H  0.63635701  0.09475643  0.76674788     0.16770
O3706       O  0.61244923  0.10540515  0.72942937    -0.60270
H3707       H  0.59709294  0.09893504  0.74100329     0.43760
H3708       H  0.71093456  0.18082312  0.79471713     0.43720
C3709       C  0.63214761  0.15963572  0.53540344    -0.05350
C3710       C  0.61313771  0.14187836  0.51529227    -0.32770
C3711       C  0.61906877  0.12702126  0.99628332     0.36480
C3712       C  0.64452231  0.13026178  0.99676454    -0.05700
C3713       C  0.66408562  0.14947108  0.51557741    -0.32670
C3714       C  0.65792738  0.16379677  0.53511489     0.36380
H3715       H  0.59301861  0.13787140  0.51584535     0.16750
O3716       O  0.59989832  0.10956388  0.97712518    -0.60170
H3717       H  0.68393004  0.15265659  0.51579135     0.16770
O3718       O  0.67655264  0.18006054  0.55543637    -0.60270
H3719       H  0.68372924  0.19766922  0.54936983     0.43760
H3720       H  0.58959879  0.09377105  0.98669644     0.43720
C3721       C  0.62324026  0.45824833  0.51477459    -0.05350
C3722       C  0.65019563  0.47505514  0.51219972    -0.32770
C3723       C  0.65895995  0.99551745  0.49522205     0.36480
C3724       C  0.64066740  0.00005116  0.98107780    -0.05700
C3725       C  0.61374080  0.48231448  0.98247101    -0.32670
C3726       C  0.60506071  0.46157041  0.49888596     0.36380
H3727       H  0.66451613  0.47362265  0.52511932     0.16750
O3728       O  0.68541820  0.01227005  0.99455307    -0.60170
H3729       H  0.59924811  0.48484403  0.97121126     0.16770
O3730       O  0.57861279  0.44622481  0.50155578    -0.60270
H3731       H  0.57305151  0.43083076  0.48809699     0.43760
H3732       H  0.69153249  0.00385207  0.48050434     0.43720
C3733       C  0.64975838  0.48800320  0.73424652    -0.05350
C3734       C  0.64884867  0.47825670  0.75955715    -0.32770
C3735       C  0.65950706  0.99495116  0.78375103     0.36480
C3736       C  0.67050122  0.02211657  0.78312721    -0.05700
C3737       C  0.67297179  0.03189607  0.75729871    -0.32670
C3738       C  0.66288030  0.01499184  0.73293160     0.36380
H3739       H  0.63902329  0.45749482  0.76070857     0.16750
O3740       O  0.65766806  0.48418874  0.80806373    -0.60170
H3741       H  0.68138515  0.05251882  0.75606283     0.16770
O3742       O  0.66427212  0.02494317  0.70818567    -0.60270
H3743       H  0.68030579  0.02631228  0.70023537     0.43760
H3744       H  0.67465562  0.48470721  0.81112189     0.43720
C3745       C  0.59308165  0.02340653  0.67042149    -0.05350
C3746       C  0.57018361  0.02316977  0.67866621    -0.32770
C3747       C  0.56872484  0.04597636  0.68073043     0.36480
C3748       C  0.59086056  0.06962883  0.67598467    -0.05700
C3749       C  0.61459553  0.07012782  0.67071974    -0.32670
C3750       C  0.61574476  0.04724243  0.66771046     0.36380
H3751       H  0.55284738  0.50497449  0.68148318     0.16750
O3752       O  0.54503067  0.04449414  0.68477106    -0.60170
H3753       H  0.63196149  0.08819766  0.66723756     0.16770
O3754       O  0.63877409  0.04821777  0.66094933    -0.60270
H3755       H  0.64956774  0.05343579  0.67859714     0.43760
H3756       H  0.53630084  0.04068227  0.66603320     0.43720
C3757       C  0.57649210  0.30851265  0.59830391    -0.05350
C3758       C  0.55490356  0.28749828  0.60883960    -0.32770
C3759       C  0.55572815  0.26535809  0.61492747     0.36480
C3760       C  0.57815024  0.26328868  0.60983473    -0.05700
C3761       C  0.59878983  0.28314899  0.59676734    -0.32670
C3762       C  0.59820769  0.30575610  0.59128011     0.36380
H3763       H  0.53785056  0.28901621  0.61422389     0.16750
O3764       O  0.53445058  0.24583107  0.62596892    -0.60170
H3765       H  0.61604492  0.28178638  0.59216461     0.16770
O3766       O  0.61989694  0.32586911  0.58154446    -0.60270
H3767       H  0.61671032  0.32312292  0.56119342     0.43760
H3768       H  0.53577862  0.25189042  0.64578508     0.43720
C3769       C  0.67612707  0.39943521  0.59029179    -0.05350
C3770       C  0.69231344  0.41023225  0.56842704    -0.32770
C3771       C  0.71641451  0.41043011  0.56676058     0.36480
C3772       C  0.72417128  0.39936427  0.58685086    -0.05700
C3773       C  0.70688110  0.38682139  0.60722368    -0.32670
C3774       C  0.68318440  0.38681815  0.60906647     0.36380
H3775       H  0.68726644  0.42017681  0.55392269     0.16750
O3776       O  0.73296552  0.42302812  0.54673303    -0.60170
H3777       H  0.71258359  0.37833498  0.62293970     0.16770
O3778       O  0.66786948  0.37601778  0.63059920    -0.60270
H3779       H  0.65646781  0.35742332  0.62409114     0.43760
H3780       H  0.74392114  0.44124631  0.55482310     0.43720
C3781       C  0.98757496  0.42426913  0.66978046    -0.05350
C3782       C  0.96429107  0.40178413  0.67477164    -0.32770
C3783       C  0.94001674  0.40059436  0.67133837     0.36480
C3784       C  0.93908062  0.42225224  0.66343203    -0.05700
C3785       C  0.96237134  0.44524925  0.66039602    -0.32670
C3786       C  0.98664142  0.44632872  0.66323151     0.36380
H3787       H  0.96478828  0.38448737  0.67905627     0.16750
O3788       O  0.91730109  0.37792290  0.67449498    -0.60170
H3789       H  0.96160742  0.46173553  0.65358591     0.16770
O3790       O  0.00883211  0.46752280  0.65567507    -0.60270
H3791       H  0.00942403  0.48284352  0.66589829     0.43760
H3792       H  0.91276295  0.36767776  0.65622029     0.43720
C3793       C  0.98373437  0.12922375  0.99424513    -0.05350
C3794       C  0.98737677  0.15147101  0.51043731    -0.32770
C3795       C  0.50879493  0.16503639  0.52997546     0.36480
C3796       C  0.52750593  0.15704843  0.53284915    -0.05700
C3797       C  0.52483099  0.13598780  0.51543017    -0.32670
C3798       C  0.00309343  0.12191280  0.99662472     0.36380
H3799       H  0.97303964  0.15775186  0.50870052     0.16750
O3800       O  0.51001299  0.18460074  0.54778791    -0.60170
H3801       H  0.53855203  0.12903078  0.51805096     0.16770
O3802       O  0.00112272  0.10107637  0.98057233    -0.60270
H3803       H  0.49336851  0.08647005  0.99226663     0.43760
H3804       H  0.02250296  0.20083742  0.53997373     0.43720
C3805       C  0.50948324  0.15011846  0.74278689    -0.05350
C3806       C  0.50514362  0.16853467  0.75816579    -0.32770
C3807       C  0.98559599  0.16081988  0.77763709     0.36480
C3808       C  0.96932327  0.13433387  0.78112346    -0.05700
C3809       C  0.97262750  0.11608162  0.76450476    -0.32670
C3810       C  0.99241888  0.12364755  0.74579235     0.36380
H3811       H  0.51783223  0.18898326  0.75619313     0.16750
O3812       O  0.98392258  0.17933901  0.79451931    -0.60170
H3813       H  0.96093478  0.09568297  0.76748219     0.16770
O3814       O  0.99545189  0.10487084  0.73115245    -0.60270
H3815       H  0.97878390  0.09421210  0.71974728     0.43760
H3816       H  0.46987589  0.18136522  0.78553700     0.43720
C3817       C  0.85747962  0.00166670  0.97741228    -0.05350
C3818       C  0.83452887  0.47729084  0.97062798    -0.32770
C3819       C  0.82371158  0.45866095  0.99018645     0.36480
C3820       C  0.83549641  0.46439683  0.51722301    -0.05700
C3821       C  0.85810707  0.48891162  0.52358313    -0.32670
C3822       C  0.86910919  0.00706796  0.50430084     0.36380
H3823       H  0.82522425  0.47249582  0.95000033     0.16750
O3824       O  0.80162377  0.43523946  0.98269628    -0.60170
H3825       H  0.86785762  0.49420858  0.54386498     0.16770
O3826       O  0.89088444  0.03063216  0.51243207    -0.60270
H3827       H  0.90591678  0.02743787  0.51197626     0.43760
H3828       H  0.78670741  0.43782600  0.98758059     0.43720
C3829       C  0.85931698  0.02703317  0.77117255    -0.05350
C3830       C  0.83608104  0.50274344  0.76916634    -0.32770
C3831       C  0.83021483  0.48436906  0.74650364     0.36480
C3832       C  0.84777829  0.48994711  0.72544145    -0.05700
C3833       C  0.87053446  0.01449063  0.72682130    -0.32670
C3834       C  0.87621095  0.03309488  0.74929297     0.36380
H3835       H  0.82304696  0.49748523  0.78596238     0.16750
O3836       O  0.80798104  0.46050792  0.74586145    -0.60170
H3837       H  0.88422135  0.01904332  0.71066518     0.16770
O3838       O  0.89950259  0.05611561  0.75087670    -0.60270
H3839       H  0.89544565  0.06814263  0.74182586     0.43760
H3840       H  0.81351346  0.44953551  0.75496772     0.43720
C3841       C  0.56313432  0.08115482  0.92453931    -0.05350
C3842       C  0.56328516  0.10366458  0.91815631    -0.32770
C3843       C  0.54040285  0.10499749  0.91836765     0.36480
C3844       C  0.51685873  0.08349629  0.92498429    -0.05700
C3845       C  0.51762279  0.06275377  0.93577122    -0.32670
C3846       C  0.54079537  0.06139780  0.93550614     0.36380
H3847       H  0.58090136  0.11978854  0.91142662     0.16750
O3848       O  0.54100004  0.12705268  0.91116340    -0.60170
H3849       H  0.99993225  0.04680564  0.94247340     0.16770
O3850       O  0.54120490  0.04045637  0.94477833    -0.60270
H3851       H  0.52693521  0.02493069  0.93390326     0.43760
H3852       H  0.54343124  0.12717298  0.89104858     0.43720
C3853       C  0.81133785  0.07290998  0.85440891    -0.05350
C3854       C  0.79888051  0.06692379  0.87910592    -0.32770
C3855       C  0.77643887  0.06851031  0.88331292     0.36480
C3856       C  0.76536458  0.07590388  0.86220876    -0.05700
C3857       C  0.77812253  0.08237291  0.83739528    -0.32670
C3858       C  0.80122367  0.08121882  0.83355305     0.36380
H3859       H  0.80706672  0.06168284  0.89585650     0.16750
O3860       O  0.76628281  0.06382990  0.90879168    -0.60170
H3861       H  0.77021899  0.08826808  0.82098284     0.16770
O3862       O  0.81322477  0.08743474  0.80917020    -0.60270
H3863       H  0.82455301  0.10656296  0.81139257     0.43760
H3864       H  0.75676901  0.04470360  0.90885131     0.43720
C3865       C  0.96968986  0.32387992  0.98160797    -0.05350
C3866       C  0.97392699  0.34714465  0.99533755    -0.32770
C3867       C  0.49565829  0.36206102  0.51374784     0.36480
C3868       C  0.51298768  0.35304993  0.52088357    -0.05700
C3869       C  0.50856789  0.32932388  0.50765730    -0.32670
C3870       C  0.98741668  0.31509056  0.98760254     0.36380
H3871       H  0.96154961  0.35504259  0.98989902     0.16750
O3872       O  0.50003516  0.38591064  0.52447666    -0.60170
H3873       H  0.52132886  0.32182284  0.51288359     0.16770
O3874       O  0.98472806  0.29313193  0.97331476    -0.60270
H3875       H  0.97186242  0.27862297  0.98326773     0.43760
H3876       H  0.51299819  0.39844379  0.51268754     0.43720
C3877       C  0.52007619  0.37574315  0.73228963    -0.05350
C3878       C  0.00554213  0.38807896  0.73860083    -0.32770
C3879       C  0.98650147  0.37906715  0.75790605     0.36480
C3880       C  0.98212262  0.35765575  0.77214066    -0.05700
C3881       C  0.99612330  0.34476002  0.76514680    -0.32670
C3882       C  0.51475942  0.35347020  0.74513392     0.36380
H3883       H  0.50861984  0.40464067  0.72812197     0.16750
O3884       O  0.97251768  0.39161713  0.76278808    -0.60170
H3885       H  0.99313782  0.32825999  0.77565347     0.16770
O3886       O  0.52850733  0.34084255  0.73926973    -0.60270
H3887       H  0.51698841  0.32607028  0.72556208     0.43760
H3888       H  0.95679728  0.38241382  0.74971008     0.43720
C3889       C  0.92414718  0.43844767  0.87591854    -0.05350
C3890       C  0.94620294  0.46049086  0.88879128    -0.32770
C3891       C  0.94411903  0.48184484  0.89880977     0.36480
C3892       C  0.91972363  0.48065678  0.89620359    -0.05700
C3893       C  0.89757419  0.45811046  0.88418974    -0.32670
C3894       C  0.89982547  0.43729907  0.87347151     0.36380
H3895       H  0.96463869  0.46074518  0.89189499     0.16750
O3896       O  0.96606681  0.00406252  0.90974261    -0.60170
H3897       H  0.87877879  0.45728552  0.88169914     0.16770
O3898       O  0.87786572  0.41527568  0.86198957    -0.60270
H3899       H  0.87868029  0.41641796  0.84178584     0.43760
H3900       H  0.96783470  0.50134195  0.92931145     0.43720
C3901       C  0.90955175  0.22570157  0.87898659    -0.05350
C3902       C  0.88842592  0.20425638  0.88911715    -0.32770
C3903       C  0.88674116  0.18002376  0.88572607     0.36480
C3904       C  0.90625412  0.17727015  0.87203791    -0.05700
C3905       C  0.92723977  0.19851701  0.86194536    -0.32670
C3906       C  0.92910217  0.22268060  0.86539272     0.36380
H3907       H  0.87320061  0.20624324  0.89938407     0.16750
O3908       O  0.86649033  0.15932573  0.89655015    -0.60170
H3909       H  0.94287461  0.19662270  0.85249684     0.16770
O3910       O  0.95087312  0.24353962  0.85672723    -0.60270
H3911       H  0.94841143  0.24147552  0.83630701     0.43760
H3912       H  0.85305293  0.15004690  0.88102765     0.43720
C3913       C  0.51795040  0.42990157  0.88057953    -0.05350
C3914       C  0.51597961  0.45239497  0.88031057    -0.32770
C3915       C  0.53638601  0.47631890  0.89173441     0.36480
C3916       C  0.55897129  0.47779260  0.90374488    -0.05700
C3917       C  0.56043397  0.45529297  0.90557504    -0.32670
C3918       C  0.54030488  0.43145727  0.89376210     0.36380
H3919       H  0.49892928  0.45168324  0.87049321     0.16750
O3920       O  0.53565925  0.99854271  0.88805199    -0.60170
H3921       H  0.57836964  0.45661219  0.91380415     0.16770
O3922       O  0.54344625  0.41021471  0.89395592    -0.60270
H3923       H  0.55199119  0.40975688  0.87667816     0.43760
H3924       H  0.51891392  0.99593944  0.89529088     0.43720
C3925       C  0.76616121  0.18037616  0.87473109    -0.05350
C3926       C  0.76568532  0.20350388  0.88033850    -0.32770
C3927       C  0.78896639  0.22719432  0.88352482     0.36480
C3928       C  0.81312250  0.22788844  0.88157091    -0.05700
C3929       C  0.81375158  0.20484553  0.87580002    -0.32670
C3930       C  0.79029713  0.18104496  0.87211021     0.36380
H3931       H  0.74717465  0.20309645  0.88279784     0.16750
O3932       O  0.78799212  0.24960587  0.88874273    -0.60170
H3933       H  0.83235892  0.20537964  0.87380491     0.16770
O3934       O  0.79119234  0.15854614  0.86763107    -0.60270
H3935       H  0.79062747  0.15524769  0.84729131     0.43760
H3936       H  0.79008890  0.25329876  0.90911840     0.43720
C3937       C  0.82723575  0.33613918  0.52279340    -0.05350
C3938       C  0.84180412  0.32365197  0.52835625    -0.32770
C3939       C  0.85142582  0.31386659  0.50704753     0.36480
C3940       C  0.84585893  0.31548136  0.97941645    -0.05700
C3941       C  0.82805189  0.32432407  0.97388936    -0.32670
C3942       C  0.81901234  0.33477503  0.99510760     0.36380
H3943       H  0.84788043  0.32346981  0.54940110     0.16750
O3944       O  0.86841709  0.30530663  0.51356471    -0.60170
H3945       H  0.82344395  0.32583240  0.95271257     0.16770
O3946       O  0.80459906  0.34606872  0.98818817    -0.60270
H3947       H  0.78599903  0.33212571  0.98808607     0.43760
H3948       H  0.88600734  0.32111049  0.51625697     0.43720
C3949       C  0.87256016  0.36160211  0.77594273    -0.05350
C3950       C  0.89017152  0.38441562  0.76451811    -0.32770
C3951       C  0.88228336  0.39295655  0.74245977     0.36480
C3952       C  0.85604950  0.37889720  0.73130600    -0.05700
C3953       C  0.83831999  0.35598477  0.74247638    -0.32670
C3954       C  0.84634076  0.34726493  0.76457644     0.36380
H3955       H  0.91046670  0.39582616  0.77246799     0.16750
O3956       O  0.90072046  0.41489748  0.73164560    -0.60170
H3957       H  0.81816129  0.34475111  0.73405739     0.16770
O3958       O  0.82828102  0.32486643  0.77491134    -0.60270
H3959       H  0.82909215  0.31073876  0.76365476     0.43760
H3960       H  0.90965652  0.40890361  0.71836518     0.43720
O3961       O  0.86611058  0.83302415  0.31046453    -0.75170
O3962       O  0.90667761  0.86796937  0.30751423    -0.54080
C3963       C  0.88229424  0.85356742  0.29945728     0.78560
O3964       O  0.87346400  0.83925492  0.44708167    -0.59770
O3965       O  0.87062787  0.80010875  0.45044623    -0.52800
C3966       C  0.86447514  0.81784370  0.45773170     0.70570
O3967       O  0.91321017  0.90140392  0.39492203    -0.74330
O3968       O  0.93233483  0.90711825  0.35365146    -0.54890
C3969       C  0.92363810  0.91426012  0.37448653     0.76570
O3970       O  0.83841780  0.76706734  0.36354382    -0.59470
O3971       O  0.85513219  0.75868759  0.40178718    -0.52590
C3972       C  0.83726008  0.75281751  0.38251122     0.73170
Zr3973     Zr  0.86805867  0.80848025  0.34733980     2.54710
O3974       O  0.82767095  0.80979148  0.35339033    -0.80040
O3975       O  0.84963082  0.77683363  0.30697602    -0.93460
Zr3976     Zr  0.90082321  0.86068921  0.41135111     2.64680
O3977       O  0.86369393  0.86822857  0.41017814    -0.98410
O3978       O  0.92064912  0.89046223  0.45292332    -0.80470
O3979       O  0.89273959  0.85295803  0.36294982    -0.83830
O3980       O  0.87444724  0.81629618  0.39606120    -2.18540
O3981       O  0.91965832  0.76332829  0.35932424    -0.67220
O3982       O  0.90240371  0.75833101  0.40177564    -0.51790
C3983       C  0.91042354  0.75070576  0.38036651     0.71550
O3984       O  0.99439058  0.88388094  0.37434132    -0.60130
O3985       O  0.97713561  0.90520063  0.35499693    -0.52110
C3986       C  0.99567260  0.90504286  0.36889522     0.73350
O3987       O  0.96854971  0.82630143  0.43486002    -0.71520
O3988       O  0.92897915  0.80514328  0.45310677    -0.50200
C3989       C  0.95443704  0.81647721  0.45489918     0.74730
O3990       O  0.95782280  0.82809802  0.30483944    -0.66850
O3991       O  0.95826485  0.86643151  0.30563663    -0.54050
C3992       C  0.96470167  0.85004484  0.29547557     0.73120
Zr3993     Zr  0.93257608  0.80454117  0.34269953     2.77540
O3994       O  0.97290729  0.80242244  0.34192100    -0.97600
O3995       O  0.91180164  0.77304285  0.30257631    -0.78420
Zr3996     Zr  0.96532061  0.85614062  0.40689951     2.70070
O3997       O  0.00953209  0.86552282  0.42017161    -0.79670
O3998       O  0.97931101  0.89143526  0.44348915    -0.98750
Zr3999     Zr  0.93445705  0.86819202  0.34451007     2.21500
Zr4000     Zr  0.89811308  0.79660050  0.41275267     2.11130
O4001       O  0.93923984  0.81139665  0.39145157    -2.47440
O4002       O  0.95902764  0.84865460  0.35819195    -0.79460
O4003       O  0.89181992  0.78922564  0.36320945    -0.71660
O4004       O  0.94248718  0.87710266  0.39349929    -2.32620
O4005       O  0.90893361  0.82393292  0.32713805    -2.28820
O4006       O  0.92456427  0.84147851  0.42796591    -0.73420
H4007       H  0.85721973  0.80910928  0.40318926     0.78580
H4008       H  0.95301712  0.89541835  0.39922367     0.79670
H4009       H  0.94722789  0.80129854  0.39591839     0.81890
H4010       H  0.90681987  0.82184472  0.30722881     0.79500
H4011       H  0.93536561  0.90628473  0.44652662     0.42530
H4012       H  0.96476014  0.88525759  0.45604064     0.41500
H4013       H  0.51364825  0.85586679  0.40551099     0.41180
H4014       H  0.97420023  0.79586446  0.35958661     0.39110
H4015       H  0.89297327  0.76334615  0.30639546     0.42250
H4016       H  0.86128974  0.78524731  0.29205506     0.37030
H4017       H  0.83346755  0.82848233  0.35656494     0.43150
H4018       H  0.84791814  0.85073358  0.40847768     0.39560
H4019       H  0.96910831  0.78811296  0.32760637     0.44480
H4020       H  0.83300543  0.77631937  0.30176859     0.43200
H4021       H  0.86376727  0.87575158  0.42905115     0.43340
H4022       H  0.99386883  0.89157483  0.45415535     0.43700
O4023       O  0.91570970  0.65169017  0.39738211    -0.75170
O4024       O  0.90295649  0.63865431  0.35152272    -0.54080
C4025       C  0.90816231  0.65416257  0.37354560     0.78560
O4026       O  0.99174153  0.59266876  0.39532366    -0.59770
O4027       O  0.97151594  0.56821287  0.43045200    -0.52800
C4028       C  0.99168174  0.58134350  0.41671044     0.70570
O4029       O  0.96943101  0.62116817  0.32436409    -0.74330
O4030       O  0.93154601  0.61945551  0.30918610    -0.54890
C4031       C  0.95581716  0.62529844  0.30681296     0.76570
O4032       O  0.95452947  0.62953360  0.46045670    -0.59470
O4033       O  0.95246191  0.59101711  0.46627352    -0.52590
C4034       C  0.96159705  0.61549367  0.47288692     0.73170
Zr4035     Zr  0.92688250  0.62338879  0.41938557     2.54710
O4036       O  0.96298852  0.66789807  0.42667157    -0.80040
O4037       O  0.90257788  0.63135729  0.45517841    -0.93460
Zr4038     Zr  0.96328463  0.60056014  0.36623591     2.64680
O4039       O  0.00127311  0.64382615  0.37580874    -0.98410
O4040       O  0.98666039  0.58511910  0.33664207    -0.80470
O4041       O  0.93873274  0.62197078  0.37278836    -0.83830
O4042       O  0.95275845  0.60372718  0.41201071    -2.18540
O4043       O  0.85544913  0.52490449  0.43985314    -0.67220
O4044       O  0.89554297  0.53328762  0.45702127    -0.51790
C4045       C  0.87018354  0.52114018  0.45672634     0.71550
O4046       O  0.86436824  0.52954144  0.31928803    -0.60130
O4047       O  0.88140672  0.56746762  0.30078561    -0.52110
C4048       C  0.86853320  0.54247392  0.29845653     0.73350
O4049       O  0.90820551  0.50606903  0.37458850    -0.71520
O4050       O  0.92709574  0.52066325  0.41826420    -0.50200
C4051       C  0.91828765  0.50404381  0.39696462     0.74730
O4052       O  0.83678223  0.55357121  0.36385816    -0.66850
O4053       O  0.85537896  0.58972839  0.34157297    -0.54050
C4054       C  0.83578194  0.57193762  0.35272932     0.73120
Zr4055     Zr  0.86248671  0.55596132  0.40521020     2.77540
O4056       O  0.81604063  0.52421894  0.40716616    -0.97600
O4057       O  0.84894532  0.58109869  0.43540545    -0.78420
Zr4058     Zr  0.89824645  0.53386211  0.35141459     2.70070
O4059       O  0.86719318  0.98819510  0.33838550    -0.79670
O4060       O  0.92063007  0.52751046  0.31246504    -0.98750
Zr4061     Zr  0.89941837  0.59646136  0.34392846     2.21500
Zr4062     Zr  0.92739988  0.56114308  0.42568990     2.11130
O4063       O  0.88732370  0.53494069  0.39791972    -2.47440
O4064       O  0.87302322  0.55395607  0.35843635    -0.79460
O4065       O  0.90154451  0.58128358  0.43423654    -0.71660
O4066       O  0.92461508  0.57551412  0.33725543    -2.32620
O4067       O  0.88756145  0.59839777  0.39121396    -2.28820
O4068       O  0.93800551  0.55799248  0.37887996    -0.73420
H4069       H  0.96953996  0.61361559  0.42218686     0.78580
H4070       H  0.92846720  0.57427590  0.31817722     0.79670
H4071       H  0.87799117  0.51730223  0.40263609     0.81890
H4072       H  0.87683206  0.60646205  0.39280654     0.79500
H4073       H  0.97317525  0.57262715  0.32241457     0.42530
H4074       H  0.92449525  0.51393844  0.31748087     0.41500
H4075       H  0.85336386  0.48362305  0.35173277     0.41180
H4076       H  0.81485797  0.50710307  0.40374323     0.39110
H4077       H  0.85019448  0.57615394  0.45407210     0.42250
H4078       H  0.88992898  0.63464627  0.44509977     0.37030
H4079       H  0.97643436  0.66832721  0.41436875     0.43150
H4080       H  0.00619274  0.64537125  0.39568250     0.39560
H4081       H  0.81208982  0.52541280  0.42674192     0.44480
H4082       H  0.91544605  0.64844214  0.46478067     0.43200
H4083       H  0.51557727  0.64292535  0.36622070     0.43340
H4084       H  0.90677679  0.51884731  0.29728227     0.43700
O4085       O  0.50688495  0.90753465  0.14011723    -0.75170
O4086       O  0.53216736  0.93505868  0.17727817    -0.54080
C4087       C  0.51038192  0.92190895  0.16251080     0.78560
O4088       O  0.57091502  0.83846982  0.12598239    -0.59770
O4089       O  0.58620613  0.85052882  0.08365897    -0.52800
C4090       C  0.57807927  0.83427236  0.10234485     0.70570
O4091       O  0.54140210  0.86934139  0.19411687    -0.74330
O4092       O  0.55143670  0.91041908  0.20964208    -0.54890
C4093       C  0.53928726  0.88579025  0.21099976     0.76570
O4094       O  0.52234927  0.87512080  0.06417809    -0.59470
O4095       O  0.55564177  0.87047704  0.04666770    -0.52590
C4096       C  0.53193058  0.86687721  0.04527166     0.73170
Zr4097     Zr  0.53348320  0.89956045  0.10809163     2.54710
O4098       O  0.99040492  0.86085690  0.10726397    -0.80040
O4099       O  0.51645845  0.92123297  0.08094007    -0.93460
Zr4100     Zr  0.56603398  0.87062765  0.15385311     2.64680
O4101       O  0.52643024  0.82851705  0.15451781    -0.98410
O4102       O  0.58981467  0.86003223  0.18700758    -0.80470
O4103       O  0.54436676  0.89474340  0.15295569    -0.83830
O4104       O  0.55364037  0.87367967  0.10812755    -2.18540
O4105       O  0.61348108  0.96189056  0.05967098    -0.67220
O4106       O  0.60904350  0.92270452  0.04388210    -0.51790
C4107       C  0.61482125  0.94639325  0.04100516     0.71550
O4108       O  0.64650803  0.96343241  0.19226628    -0.60130
O4109       O  0.60946359  0.96157119  0.20901630    -0.52110
C4110       C  0.63432747  0.96985573  0.21021305     0.73350
O4111       O  0.65669589  0.91610739  0.12106327    -0.71520
O4112       O  0.63510334  0.89728235  0.07885532    -0.50200
C4113       C  0.65455145  0.90472465  0.09677823     0.74730
O4114       O  0.60064108  0.99662011  0.13790312    -0.66850
O4115       O  0.58158741  0.98050520  0.17763913    -0.54050
C4116       C  0.59204368  0.99869588  0.16166440     0.73120
Zr4117     Zr  0.60190417  0.96309756  0.10641604     2.77540
O4118       O  0.64610897  0.00022607  0.10693235    -0.97600
O4119       O  0.58239946  0.98327443  0.08040139    -0.78420
Zr4120     Zr  0.63442089  0.93317697  0.15048778     2.70070
O4121       O  0.67791380  0.96928995  0.14430139    -0.79670
O4122       O  0.65107641  0.91490318  0.18292090    -0.98750
Zr4123     Zr  0.57441804  0.93696010  0.17356719     2.21500
Zr4124     Zr  0.59238232  0.89492109  0.08283947     2.11130
O4125       O  0.62271737  0.93752340  0.10507538    -2.47440
O4126       O  0.61415836  0.95890712  0.15093543    -0.79460
O4127       O  0.57202169  0.92118178  0.08392767    -0.71660
O4128       O  0.59612077  0.91221010  0.17572368    -2.32620
O4129       O  0.56233797  0.94189613  0.12863415    -2.29180
O4130       O  0.60432113  0.89139025  0.12900834    -0.73420
H4131       H  0.54180853  0.85647539  0.09941340     0.78580
H4132       H  0.60055477  0.91121014  0.19460506     0.79670
H4133       H  0.63836601  0.94560087  0.09491884     0.81890
H4134       H  0.55371970  0.95210106  0.12927080     0.79500
H4135       H  0.57634117  0.84908879  0.19940013     0.42530
H4136       H  0.64446859  0.89685699  0.17487279     0.41500
H4137       H  0.67519805  0.98430829  0.14338232     0.41180
H4138       H  0.65609363  0.99392340  0.09574031     0.39110
H4139       H  0.57347803  0.97107061  0.06374087     0.42250
H4140       H  0.53072448  0.93135540  0.06889259     0.37030
H4141       H  0.99358981  0.84846899  0.11667690     0.43150
H4142       H  0.52044312  0.82222875  0.13489904     0.39560
H4143       H  0.64420010  0.51227927  0.09551824     0.44480
H4144       H  0.51596470  0.93443003  0.09414237     0.43200
H4145       H  0.53259057  0.81696081  0.16086232     0.43340
H4146       H  0.67023601  0.92374864  0.18066349     0.43700
O4147       O  0.64962414  0.61799306  0.32637360    -0.75170
O4148       O  0.68634113  0.61668072  0.31385144    -0.54080
C4149       C  0.66810257  0.62262235  0.31014951     0.78560
O4150       O  0.67226202  0.63011049  0.46296682    -0.59770
O4151       O  0.63566413  0.59162160  0.46930347    -0.52800
C4152       C  0.65148829  0.61614593  0.47547328     0.70570
O4153       O  0.73024654  0.65480452  0.39901954    -0.74330
O4154       O  0.73403392  0.63780257  0.35673902    -0.54890
C4155       C  0.74185505  0.65599310  0.37663889     0.76570
O4156       O  0.59661709  0.58873111  0.39509311    -0.59470
O4157       O  0.59312507  0.56632072  0.43217502    -0.52590
C4158       C  0.58564441  0.57831012  0.41691513     0.73170
Zr4159     Zr  0.63287485  0.59572426  0.36689021     2.54710
O4160       O  0.63126904  0.63577139  0.37131920    -0.80040
O4161       O  0.59475827  0.57385351  0.33410163    -0.93460
Zr4162     Zr  0.69288137  0.62465700  0.42227834     2.64680
O4163       O  0.69713324  0.66751181  0.42561787    -0.98410
O4164       O  0.72802660  0.63774412  0.45770869    -0.80470
O4165       O  0.67920821  0.61936107  0.37485689    -0.83830
O4166       O  0.64690948  0.60230891  0.41371363    -2.18540
O4167       O  0.59573416  0.50295534  0.38150918    -0.67220
O4168       O  0.59125506  0.51928528  0.42374684    -0.51790
C4169       C  0.58360216  0.50166680  0.40343685     0.71550
O4170       O  0.72856772  0.56610001  0.38761432    -0.60130
O4171       O  0.73344530  0.58811885  0.34999245    -0.52110
C4172       C  0.74084001  0.57677269  0.36655701     0.73350
O4173       O  0.66979720  0.52896827  0.45033029    -0.71520
O4174       O  0.63408434  0.53233458  0.46200398    -0.50200
C4175       C  0.64900374  0.52221690  0.46383438     0.74730
O4176       O  0.66655794  0.52801587  0.33098724    -0.66850
O4177       O  0.68648523  0.56402156  0.30931255    -0.54050
C4178       C  0.67524833  0.53918671  0.30912807     0.73120
Zr4179     Zr  0.63420391  0.53099409  0.35851342     2.77540
O4180       O  0.62246587  0.98572000  0.34899396    -0.97600
O4181       O  0.60596796  0.52127943  0.31703028    -0.78420
Zr4182     Zr  0.69254621  0.55914780  0.41566321     2.70070
O4183       O  0.70204860  0.52385018  0.41524158    -0.79670
O4184       O  0.72653786  0.58317697  0.45260152    -0.98750
Zr4185     Zr  0.69564409  0.59471535  0.35029779     2.21500
Zr4186     Zr  0.63094925  0.56082926  0.43026909     2.11130
O4187       O  0.64663029  0.53557368  0.40572889    -2.47440
O4188       O  0.68003909  0.55356217  0.36794136    -0.79460
O4189       O  0.61680179  0.55446950  0.38256981    -0.71660
O4190       O  0.70924141  0.60022104  0.39848152    -2.32620
O4191       O  0.64897134  0.57159509  0.34143463    -2.28820
O4192       O  0.67723900  0.58407986  0.44080340    -0.73420
H4193       H  0.63973672  0.61209432  0.42292130     0.78580
H4194       H  0.72817626  0.60948123  0.40105570     0.79670
H4195       H  0.63893099  0.51821572  0.41115833     0.81890
H4196       H  0.64419695  0.56950158  0.32195549     0.79500
H4197       H  0.74319291  0.63953191  0.44749124     0.42530
H4198       H  0.71759211  0.57686964  0.46973759     0.41500
H4199       H  0.69015917  0.51107728  0.40011162     0.41180
H4200       H  0.62218371  0.97946166  0.36730027     0.39110
H4201       H  0.58908145  0.51843285  0.32400735     0.42250
H4202       H  0.60170857  0.57118436  0.31651106     0.37030
H4203       H  0.64872703  0.64894254  0.37991138     0.43150
H4204       H  0.67899093  0.66434951  0.42702123     0.39560
H4205       H  0.60388587  0.97644759  0.34173364     0.44480
H4206       H  0.59003181  0.58725995  0.33095622     0.43200
H4207       H  0.70597568  0.67577361  0.44403955     0.43340
H4208       H  0.73846936  0.57596999  0.45079030     0.43700
O4209       O  0.53617537  0.67642043  0.20832479    -0.75170
O4210       O  0.54345516  0.64479335  0.22256276    -0.54080
C4211       C  0.53138720  0.65795198  0.22362278     0.78560
O4212       O  0.52915933  0.64538470  0.07607075    -0.59770
O4213       O  0.56573327  0.68141257  0.06443238    -0.52800
C4214       C  0.54202956  0.66223741  0.05949375     0.70570
O4215       O  0.50653605  0.60193965  0.14770107    -0.74330
O4216       O  0.52643673  0.59971781  0.18702049    -0.54890
C4217       C  0.50642779  0.59159561  0.16972889     0.76570
O4218       O  0.57107871  0.73234296  0.14201915    -0.59470
O4219       O  0.59101263  0.73139240  0.10236365    -0.52590
C4220       C  0.58025597  0.74092121  0.11864448     0.73170
Zr4221     Zr  0.56676786  0.69908590  0.17250952     2.54710
O4222       O  0.53175063  0.70948347  0.17673959    -0.80040
O4223       O  0.59191161  0.73472055  0.20797396    -0.93460
Zr4224     Zr  0.53537173  0.63547581  0.12101879     2.64680
O4225       O  0.99479294  0.63715142  0.12218343    -0.98410
O4226       O  0.51512573  0.59533921  0.09053159    -0.80470
O4227       O  0.54389865  0.65317594  0.16722147    -0.83830
O4228       O  0.55695204  0.68116526  0.12553744    -2.18540
O4229       O  0.66256393  0.73408656  0.14361457    -0.67220
O4230       O  0.64051434  0.73228889  0.10358046    -0.51790
C4231       C  0.66108045  0.74244488  0.12019710     0.71550
O4232       O  0.60025014  0.60358315  0.14960890    -0.60130
O4233       O  0.57572184  0.60004292  0.18656981    -0.52110
C4234       C  0.58874423  0.59262728  0.17080473     0.73350
O4235       O  0.62009498  0.64816363  0.07864967    -0.71520
O4236       O  0.61635056  0.68208971  0.06537263    -0.50200
C4237       C  0.62262465  0.66425366  0.06153060     0.74730
O4238       O  0.64232074  0.67729644  0.21035968    -0.66850
O4239       O  0.60323490  0.64548162  0.22397568    -0.54050
C4240       C  0.62858813  0.65870229  0.22551505     0.73120
Zr4241     Zr  0.63428304  0.70014820  0.17390196     2.77540
O4242       O  0.67990111  0.71066998  0.18006694    -0.97600
O4243       O  0.64462132  0.73553639  0.20923573    -0.78420
Zr4244     Zr  0.60290259  0.63657845  0.12253197     2.70070
O4245       O  0.64594564  0.63995893  0.12391979    -0.79670
O4246       O  0.58201993  0.59619722  0.09242234    -0.98750
Zr4247     Zr  0.57018946  0.63839211  0.18833723     2.21500
Zr4248     Zr  0.59759043  0.69455397  0.10440276     2.11130
O4249       O  0.62588719  0.68236808  0.12687923    -2.47440
O4250       O  0.61167622  0.65423990  0.16873966    -0.79460
O4251       O  0.60732737  0.71351491  0.15152535    -0.71660
O4252       O  0.56154846  0.62069903  0.14147574    -2.32620
O4253       O  0.59339782  0.68521436  0.19525251    -2.28820
O4254       O  0.57532487  0.64860488  0.09969910    -0.73420
H4255       H  0.54632638  0.68673169  0.11609455     0.78580
H4256       H  0.55234783  0.60198372  0.13987300     0.79670
H4257       H  0.64220200  0.68844417  0.11791425     0.81890
H4258       H  0.59626175  0.69102183  0.21472071     0.79500
H4259       H  0.52734829  0.58852274  0.09201125     0.42530
H4260       H  0.57480969  0.60005774  0.07608800     0.41500
H4261       H  0.65586407  0.65296065  0.13974751     0.41180
H4262       H  0.68490784  0.70777859  0.16135952     0.39110
H4263       H  0.64899571  0.75059232  0.19876978     0.42250
H4264       H  0.58124085  0.72974899  0.22429846     0.37030
H4265       H  0.51824159  0.69768971  0.16214765     0.43150
H4266       H  0.99871613  0.65325179  0.11398266     0.39560
H4267       H  0.69005968  0.72968350  0.18475124     0.44480
H4268       H  0.59036454  0.74934024  0.20179171     0.43200
H4269       H  0.98257976  0.62299740  0.10830035     0.43340
H4270       H  0.59679595  0.59424686  0.08560625     0.43700
O4271       O  0.82204979  0.96167583  0.18640310    -0.75170
O4272       O  0.86054281  0.96346325  0.19919690    -0.54080
C4273       C  0.84300779  0.97024126  0.20234754     0.78560
O4274       O  0.76908998  0.83666278  0.11992118    -0.59770
O4275       O  0.76308462  0.84935349  0.07849281    -0.52800
C4276       C  0.75604256  0.83302769  0.09708802     0.70570
O4277       O  0.82870882  0.87010587  0.19066751    -0.74330
O4278       O  0.86153796  0.91137828  0.20325261    -0.54890
C4279       C  0.84789937  0.88732855  0.20709131     0.76570
O4280       O  0.76283250  0.91744884  0.11479974    -0.59470
O4281       O  0.76180760  0.89614221  0.07314972    -0.52590
C4282       C  0.75159137  0.90498145  0.09127894     0.73170
Zr4283     Zr  0.80333831  0.93338872  0.14313371     2.54710
O4284       O  0.76810038  0.91736628  0.17470739    -0.80040
O4285       O  0.80025440  0.97161518  0.13546815    -0.93460
Zr4286     Zr  0.80742015  0.86973578  0.14687793     2.64680
O4287       O  0.77254523  0.85713294  0.17878697    -0.98410
O4288       O  0.80750244  0.82897894  0.14592175    -0.80470
O4289       O  0.82020740  0.91165214  0.16824781    -0.83830
O4290       O  0.78955911  0.89097119  0.12265376    -2.18540
O4291       O  0.83066845  0.95857759  0.06461028    -0.67220
O4292       O  0.81314895  0.92179026  0.03686308    -0.51790
C4293       C  0.82534736  0.94694645  0.04031275     0.71550
O4294       O  0.90353961  0.90673975  0.13092235    -0.60130
O4295       O  0.90562251  0.93253814  0.16916053    -0.52110
C4296       C  0.91430242  0.92016020  0.15415544     0.73350
O4297       O  0.84025976  0.85850948  0.06718779    -0.71520
O4298       O  0.81152376  0.86506844  0.04222747    -0.50200
C4299       C  0.82559081  0.85402692  0.04537580     0.74730
O4300       O  0.90008743  0.99326661  0.12812650    -0.66850
O4301       O  0.90392258  0.97782041  0.16825728    -0.54050
C4302       C  0.91131343  0.99570301  0.15206909     0.73120
Zr4303     Zr  0.86383836  0.96056766  0.09615971     2.77540
O4304       O  0.89505108  0.96906959  0.06049995    -0.97600
O4305       O  0.87406570  0.00510596  0.09346594    -0.78420
Zr4306     Zr  0.86683786  0.89685938  0.09856691     2.70070
O4307       O  0.89641885  0.91738934  0.06243807    -0.79670
O4308       O  0.88660631  0.86933204  0.09383093    -0.98750
Zr4309     Zr  0.86635944  0.93548186  0.16445530     2.21500
Zr4310     Zr  0.80209961  0.89303521  0.07560557     2.11130
O4311       O  0.84935968  0.91816751  0.07374887    -2.47440
O4312       O  0.88206499  0.93936290  0.11934362    -0.79460
O4313       O  0.81723611  0.93603703  0.09748431    -0.71660
O4314       O  0.85332107  0.89296015  0.14424006    -2.32620
O4315       O  0.84944545  0.95805477  0.14120014    -2.28820
O4316       O  0.82057879  0.87219159  0.10076897    -0.73420
H4317       H  0.77070165  0.88095296  0.12320168     0.78580
H4318       H  0.86115273  0.88477166  0.15403717     0.79670
H4319       H  0.85406626  0.91884719  0.05479947     0.81890
H4320       H  0.85588732  0.97544735  0.14968947     0.79500
H4321       H  0.81804420  0.82926145  0.13014293     0.42530
H4322       H  0.87295489  0.85215453  0.09876033     0.41500
H4323       H  0.91334393  0.92995664  0.07253182     0.41180
H4324       H  0.88435108  0.96266791  0.04278287     0.39110
H4325       H  0.86129018  0.00693681  0.10508491     0.42250
H4326       H  0.81850545  0.98624839  0.13860021     0.37030
H4327       H  0.77420120  0.91057433  0.18931314     0.43150
H4328       H  0.75866443  0.85883117  0.16899241     0.39560
H4329       H  0.90486332  0.98816436  0.06052201     0.44480
H4330       H  0.79104031  0.97387216  0.15137379     0.43200
H4331       H  0.76511227  0.83821849  0.17911029     0.43340
H4332       H  0.88829064  0.86677277  0.07378795     0.43700
C4333       C  0.93429715  0.52088199  0.16169176    -0.05350
C4334       C  0.95571881  0.52210169  0.17653015    -0.32770
C4335       C  0.97901898  0.54584968  0.18260505     0.36480
C4336       C  0.98098504  0.56843261  0.17344657    -0.05700
C4337       C  0.95833131  0.56745296  0.16200164    -0.32670
C4338       C  0.93528140  0.54392968  0.15574721     0.36380
H4339       H  0.95490509  0.00450653  0.18207670     0.16750
O4340       O  0.50017194  0.54637930  0.19547379    -0.60170
H4341       H  0.95905972  0.58488034  0.15596400     0.16770
O4342       O  0.91390005  0.54362937  0.14355361    -0.60270
H4343       H  0.91803316  0.54663474  0.12404761     0.43760
H4344       H  0.49911204  0.55051731  0.21536325     0.43720
C4345       C  0.68476887  0.76516846  0.11119302    -0.05350
C4346       C  0.70752578  0.76376005  0.10657494    -0.32770
C4347       C  0.73021105  0.78510515  0.09826892     0.36480
C4348       C  0.73052584  0.80844865  0.09438109    -0.05700
C4349       C  0.70728276  0.80938676  0.09764084    -0.32670
C4350       C  0.68453903  0.78797074  0.10593297     0.36380
H4351       H  0.70785889  0.74618217  0.10984184     0.16750
O4352       O  0.75248798  0.78341316  0.09500947    -0.60170
H4353       H  0.70734016  0.82739360  0.09587961     0.16770
O4354       O  0.66259778  0.78999763  0.11024833    -0.60270
H4355       H  0.66453710  0.79676631  0.12990721     0.43760
H4356       H  0.76005358  0.78533548  0.11397021     0.43720
C4357       C  0.64248150  0.65040676  0.24494207    -0.05350
C4358       C  0.66420505  0.66832909  0.26270728    -0.32770
C4359       C  0.67510520  0.65977102  0.28277361     0.36480
C4360       C  0.66516488  0.63301193  0.28441976    -0.05700
C4361       C  0.64488719  0.61539520  0.26533943    -0.32670
C4362       C  0.63328742  0.62373955  0.24632359     0.36380
H4363       H  0.67166586  0.68890057  0.26219038     0.16750
O4364       O  0.69399314  0.67759847  0.30196347    -0.60170
H4365       H  0.63635701  0.59475642  0.26674787     0.16770
O4366       O  0.61244923  0.60540514  0.22942936    -0.60270
H4367       H  0.59709294  0.59893503  0.24100327     0.43760
H4368       H  0.71093456  0.68082311  0.29471713     0.43720
C4369       C  0.63214760  0.65963572  0.03540344    -0.05350
C4370       C  0.61313771  0.64187836  0.01529226    -0.32770
C4371       C  0.61906878  0.62702126  0.49628331     0.36480
C4372       C  0.64452231  0.63026178  0.49676454    -0.05700
C4373       C  0.66408562  0.64947109  0.01557742    -0.32670
C4374       C  0.65792737  0.66379677  0.03511489     0.36380
H4375       H  0.59301861  0.63787140  0.01584535     0.16750
O4376       O  0.59989832  0.60956389  0.47712517    -0.60170
H4377       H  0.68393004  0.65265660  0.01579135     0.16770
O4378       O  0.67655263  0.68006054  0.05543638    -0.60270
H4379       H  0.68372923  0.69766922  0.04936984     0.43760
H4380       H  0.58959879  0.59377106  0.48669643     0.43720
C4381       C  0.62324025  0.95824832  0.01477459    -0.05350
C4382       C  0.65019562  0.97505514  0.01219972    -0.32770
C4383       C  0.65895995  0.49551745  0.99522206     0.36480
C4384       C  0.64066741  0.50005116  0.48107780    -0.05700
C4385       C  0.61374080  0.98231447  0.48247101    -0.32670
C4386       C  0.60506071  0.96157041  0.99888596     0.36380
H4387       H  0.66451612  0.97362265  0.02511932     0.16750
O4388       O  0.68541820  0.51227006  0.49455307    -0.60170
H4389       H  0.59924811  0.98484403  0.47121126     0.16770
O4390       O  0.57861278  0.94622481  0.00155578    -0.60270
H4391       H  0.57305150  0.93083076  0.98809698     0.43760
H4392       H  0.69153250  0.50385208  0.98050435     0.43720
C4393       C  0.64975837  0.98800320  0.23424652    -0.05350
C4394       C  0.64884866  0.97825670  0.25955715    -0.32770
C4395       C  0.65950707  0.49495116  0.28375103     0.36480
C4396       C  0.67050123  0.52211657  0.28312720    -0.05700
C4397       C  0.67297180  0.53189607  0.25729870    -0.32670
C4398       C  0.66288031  0.51499184  0.23293159     0.36380
H4399       H  0.63902328  0.95749482  0.26070857     0.16750
O4400       O  0.65766806  0.98418874  0.30806373    -0.60170
H4401       H  0.68138515  0.55251882  0.25606282     0.16770
O4402       O  0.66427213  0.52494317  0.20818567    -0.60270
H4403       H  0.68030580  0.52631228  0.20023537     0.43760
H4404       H  0.67465562  0.98470721  0.31112189     0.43720
C4405       C  0.59308162  0.52340651  0.17042148    -0.05350
C4406       C  0.57018358  0.52316975  0.17866619    -0.32770
C4407       C  0.56872481  0.54597633  0.18073042     0.36480
C4408       C  0.59086053  0.56962881  0.17598466    -0.05700
C4409       C  0.61459550  0.57012780  0.17071974    -0.32670
C4410       C  0.61574474  0.54724242  0.16771045     0.36380
H4411       H  0.55284735  0.00497448  0.18148313     0.16750
O4412       O  0.54503064  0.54449411  0.18477105    -0.60170
H4413       H  0.63196146  0.58819765  0.16723756     0.16770
O4414       O  0.63877406  0.54821776  0.16094932    -0.60270
H4415       H  0.64956770  0.55343577  0.17859714     0.43760
H4416       H  0.53630080  0.54068225  0.16603319     0.43720
C4417       C  0.57649210  0.80851265  0.09830391    -0.05350
C4418       C  0.55490356  0.78749829  0.10883960    -0.32770
C4419       C  0.55572816  0.76535809  0.11492747     0.36480
C4420       C  0.57815025  0.76328869  0.10983473    -0.05700
C4421       C  0.59878984  0.78314899  0.09676735    -0.32670
C4422       C  0.59820770  0.80575610  0.09128011     0.36380
H4423       H  0.53785056  0.78901621  0.11422389     0.16750
O4424       O  0.53445058  0.74583107  0.12596892    -0.60170
H4425       H  0.61604493  0.78178638  0.09216461     0.16770
O4426       O  0.61989695  0.82586911  0.08154447    -0.60270
H4427       H  0.61671033  0.82312293  0.06119342     0.43760
H4428       H  0.53577862  0.75189042  0.14578508     0.43720
C4429       C  0.67612707  0.89943523  0.09029179    -0.05350
C4430       C  0.69231344  0.91023227  0.06842704    -0.32770
C4431       C  0.71641452  0.91043014  0.06676058     0.36480
C4432       C  0.72417129  0.89936429  0.08685087    -0.05700
C4433       C  0.70688110  0.88682141  0.10722368    -0.32670
C4434       C  0.68318440  0.88681817  0.10906647     0.36380
H4435       H  0.68726645  0.92017683  0.05392269     0.16750
O4436       O  0.73296553  0.92302815  0.04673304    -0.60170
H4437       H  0.71258359  0.87833500  0.12293970     0.16770
O4438       O  0.66786948  0.87601779  0.13059920    -0.60270
H4439       H  0.65646782  0.85742333  0.12409114     0.43760
H4440       H  0.74392115  0.94124634  0.05482310     0.43720
C4441       C  0.98757493  0.92426907  0.16978047    -0.05350
C4442       C  0.96429103  0.90178406  0.17477162    -0.32770
C4443       C  0.94001671  0.90059429  0.17133834     0.36480
C4444       C  0.93908059  0.92225218  0.16343202    -0.05700
C4445       C  0.96237132  0.94524920  0.16039605    -0.32670
C4446       C  0.98664139  0.94632867  0.16323155     0.36380
H4447       H  0.96478824  0.88448730  0.17905623     0.16750
O4448       O  0.91730105  0.87792282  0.17449492    -0.60170
H4449       H  0.96160740  0.96173549  0.15358597     0.16770
O4450       O  0.00883208  0.96752276  0.15567513    -0.60270
H4451       H  0.00942400  0.98284347  0.16589835     0.43760
H4452       H  0.91276293  0.86767770  0.15622022     0.43720
C4453       C  0.98373436  0.62922375  0.49424514    -0.05350
C4454       C  0.98737675  0.65147101  0.01043733    -0.32770
C4455       C  0.50879491  0.66503639  0.02997548     0.36480
C4456       C  0.52750592  0.65704844  0.03284916    -0.05700
C4457       C  0.52483100  0.63598782  0.01543017    -0.32670
C4458       C  0.00309343  0.62191281  0.49662473     0.36380
H4459       H  0.97303961  0.65775185  0.00870054     0.16750
O4460       O  0.51001296  0.68460074  0.04778793    -0.60170
H4461       H  0.53855204  0.62903081  0.01805096     0.16770
O4462       O  0.00112273  0.60107639  0.48057233    -0.60270
H4463       H  0.49336853  0.58647006  0.49226662     0.43760
H4464       H  0.02250293  0.70083742  0.03997376     0.43720
C4465       C  0.50948324  0.65011845  0.24278690    -0.05350
C4466       C  0.50514360  0.66853467  0.25816577    -0.32770
C4467       C  0.98559597  0.66081987  0.27763707     0.36480
C4468       C  0.96932327  0.63433386  0.28112347    -0.05700
C4469       C  0.97262752  0.61608162  0.26450479    -0.32670
C4470       C  0.99241890  0.62364754  0.24579238     0.36380
H4471       H  0.51783219  0.68898325  0.25619310     0.16750
O4472       O  0.98392254  0.67933900  0.29451927    -0.60170
H4473       H  0.96093481  0.59568297  0.26748224     0.16770
O4474       O  0.99545194  0.60487084  0.23115251    -0.60270
H4475       H  0.97878394  0.59421205  0.21974737     0.43760
H4476       H  0.46987584  0.68136519  0.28553696     0.43720
C4477       C  0.85747962  0.50166670  0.47741228    -0.05350
C4478       C  0.83452887  0.97729084  0.47062798    -0.32770
C4479       C  0.82371158  0.95866095  0.49018644     0.36480
C4480       C  0.83549642  0.96439683  0.01722300    -0.05700
C4481       C  0.85810709  0.98891161  0.02358312    -0.32670
C4482       C  0.86910920  0.50706795  0.00430084     0.36380
H4483       H  0.82522426  0.97249581  0.45000032     0.16750
O4484       O  0.80162378  0.93523946  0.48269628    -0.60170
H4485       H  0.86785766  0.99420856  0.04386496     0.16770
O4486       O  0.89088446  0.53063215  0.01243206    -0.60270
H4487       H  0.90591679  0.52743785  0.01197625     0.43760
H4488       H  0.78670741  0.93782599  0.48758058     0.43720
C4489       C  0.85931696  0.52703319  0.27117255    -0.05350
C4490       C  0.83608105  0.00274342  0.26916636    -0.32770
C4491       C  0.83021485  0.98436905  0.24650365     0.36480
C4492       C  0.84777830  0.98994711  0.22544145    -0.05700
C4493       C  0.87053444  0.51449063  0.22682131    -0.32670
C4494       C  0.87621095  0.53309488  0.24929298     0.36380
H4495       H  0.82304699  0.99748520  0.28596240     0.16750
O4496       O  0.80798108  0.96050789  0.24586147    -0.60170
H4497       H  0.88422134  0.51904330  0.21066519     0.16770
O4498       O  0.89950261  0.55611559  0.25087673    -0.60270
H4499       H  0.89544570  0.56814263  0.24182588     0.43760
H4500       H  0.81351353  0.94953549  0.25496774     0.43720
C4501       C  0.56313432  0.58115482  0.42453931    -0.05350
C4502       C  0.56328516  0.60366458  0.41815631    -0.32770
C4503       C  0.54040285  0.60499749  0.41836765     0.36480
C4504       C  0.51685873  0.58349629  0.42498429    -0.05700
C4505       C  0.51762280  0.56275377  0.43577122    -0.32670
C4506       C  0.54079537  0.56139780  0.43550613     0.36380
H4507       H  0.58090136  0.61978854  0.41142662     0.16750
O4508       O  0.54100005  0.62705268  0.41116341    -0.60170
H4509       H  0.99993225  0.54680564  0.44247340     0.16770
O4510       O  0.54120490  0.54045636  0.44477832    -0.60270
H4511       H  0.52693521  0.52493069  0.43390326     0.43760
H4512       H  0.54343124  0.62717298  0.39104859     0.43720
C4513       C  0.81133785  0.57290997  0.35440892    -0.05350
C4514       C  0.79888052  0.56692380  0.37910593    -0.32770
C4515       C  0.77643888  0.56851033  0.38331293     0.36480
C4516       C  0.76536458  0.57590388  0.36220876    -0.05700
C4517       C  0.77812253  0.58237289  0.33739527    -0.32670
C4518       C  0.80122366  0.58121880  0.33355304     0.36380
H4519       H  0.80706673  0.56168287  0.39585651     0.16750
O4520       O  0.76628284  0.56382994  0.40879170    -0.60170
H4521       H  0.77021897  0.58826805  0.32098282     0.16770
O4522       O  0.81322476  0.58743470  0.30917019    -0.60270
H4523       H  0.82455300  0.60656292  0.31139254     0.43760
H4524       H  0.75676904  0.54470365  0.40885135     0.43720
C4525       C  0.96968986  0.82387991  0.48160797    -0.05350
C4526       C  0.97392698  0.84714464  0.49533757    -0.32770
C4527       C  0.49565826  0.86206099  0.01374787     0.36480
C4528       C  0.51298767  0.85304992  0.02088357    -0.05700
C4529       C  0.50856790  0.82932388  0.00765729    -0.32670
C4530       C  0.98741669  0.81509056  0.48760254     0.36380
H4531       H  0.96154960  0.85504258  0.48989905     0.16750
O4532       O  0.50003512  0.88591060  0.02447669    -0.60170
H4533       H  0.52132888  0.82182285  0.01288357     0.16770
O4534       O  0.98472806  0.79313194  0.47331475    -0.60270
H4535       H  0.97186243  0.77862297  0.48326772     0.43760
H4536       H  0.51299814  0.89844377  0.01268758     0.43720
C4537       C  0.52007618  0.87574314  0.23228963    -0.05350
C4538       C  0.00554211  0.88807893  0.23860081    -0.32770
C4539       C  0.98650145  0.87906712  0.25790603     0.36480
C4540       C  0.98212262  0.85765574  0.27214065    -0.05700
C4541       C  0.99612332  0.84476003  0.26514682    -0.32670
C4542       C  0.51475945  0.85347022  0.24513396     0.36380
H4543       H  0.50861975  0.90464059  0.22812188     0.16750
O4544       O  0.97251763  0.89161707  0.26278803    -0.60170
H4545       H  0.99313786  0.82826001  0.27565350     0.16770
O4546       O  0.52850741  0.84084261  0.23926981    -0.60270
H4547       H  0.51698852  0.82607031  0.22556217     0.43760
H4548       H  0.95679723  0.88241374  0.24971003     0.43720
C4549       C  0.92414719  0.93844767  0.37591852    -0.05350
C4550       C  0.94620294  0.96049086  0.38879128    -0.32770
C4551       C  0.94411902  0.98184483  0.39880977     0.36480
C4552       C  0.91972362  0.98065677  0.39620356    -0.05700
C4553       C  0.89757419  0.95811045  0.38418969    -0.32670
C4554       C  0.89982549  0.93729907  0.37347147     0.36380
H4555       H  0.96463869  0.96074518  0.39189501     0.16750
O4556       O  0.96606682  0.50406253  0.40974257    -0.60170
H4557       H  0.87877879  0.95728551  0.38169908     0.16770
O4558       O  0.87786574  0.91527568  0.36198950    -0.60270
H4559       H  0.87868034  0.91641797  0.34178577     0.43760
H4560       H  0.96783465  0.00134193  0.42931147     0.43720
C4561       C  0.90955172  0.72570156  0.37898659    -0.05350
C4562       C  0.88842595  0.70425640  0.38911724    -0.32770
C4563       C  0.88674118  0.68002378  0.38572618     0.36480
C4564       C  0.90625409  0.67727013  0.37203794    -0.05700
C4565       C  0.92723969  0.69851696  0.36194528    -0.32670
C4566       C  0.92910209  0.72268056  0.36539263     0.36380
H4567       H  0.87320068  0.70624328  0.39938422     0.16750
O4568       O  0.86649040  0.65932578  0.39655035    -0.60170
H4569       H  0.94287449  0.69662263  0.35249670     0.16770
O4570       O  0.95087301  0.74353955  0.35672704    -0.60270
H4571       H  0.94841122  0.74147542  0.33630683     0.43760
H4572       H  0.85305294  0.65004692  0.38102790     0.43720
C4573       C  0.51795040  0.92990156  0.38057953    -0.05350
C4574       C  0.51597962  0.95239496  0.38031057    -0.32770
C4575       C  0.53638601  0.97631889  0.39173441     0.36480
C4576       C  0.55897129  0.97779259  0.40374488    -0.05700
C4577       C  0.56043398  0.95529296  0.40557503    -0.32670
C4578       C  0.54030488  0.93145726  0.39376209     0.36380
H4579       H  0.49892928  0.95168323  0.37049322     0.16750
O4580       O  0.53565925  0.49854271  0.38805197    -0.60170
H4581       H  0.57836965  0.95661218  0.41380413     0.16770
O4582       O  0.54344626  0.91021470  0.39395590    -0.60270
H4583       H  0.55199120  0.90975688  0.37667813     0.43760
H4584       H  0.51891392  0.49593945  0.39529087     0.43720
C4585       C  0.76616122  0.68037616  0.37473109    -0.05350
C4586       C  0.76568532  0.70350388  0.38033847    -0.32770
C4587       C  0.78896639  0.72719432  0.38352479     0.36480
C4588       C  0.81312250  0.72788844  0.38157092    -0.05700
C4589       C  0.81375159  0.70484553  0.37580006    -0.32670
C4590       C  0.79029714  0.68104496  0.37211024     0.36380
H4591       H  0.74717465  0.70309645  0.38279778     0.16750
O4592       O  0.78799211  0.74960587  0.38874267    -0.60170
H4593       H  0.83235893  0.70537964  0.37380498     0.16770
O4594       O  0.79119235  0.65854614  0.36763114    -0.60270
H4595       H  0.79062749  0.65524768  0.34729138     0.43760
H4596       H  0.79008887  0.75329877  0.40911835     0.43720
C4597       C  0.82723574  0.83613918  0.02279340    -0.05350
C4598       C  0.84180411  0.82365196  0.02835625    -0.32770
C4599       C  0.85142581  0.81386660  0.00704753     0.36480
C4600       C  0.84585894  0.81548138  0.47941645    -0.05700
C4601       C  0.82805191  0.82432410  0.47388936    -0.32670
C4602       C  0.81901234  0.83477505  0.49510760     0.36380
H4603       H  0.84788041  0.82346980  0.04940110     0.16750
O4604       O  0.86841708  0.80530663  0.01356471    -0.60170
H4605       H  0.82344397  0.82583243  0.45271257     0.16770
O4606       O  0.80459907  0.84606874  0.48818817    -0.60270
H4607       H  0.78599904  0.83212572  0.48808605     0.43760
H4608       H  0.88600733  0.82111049  0.01625698     0.43720
C4609       C  0.87256016  0.86160210  0.27594273    -0.05350
C4610       C  0.89017153  0.88441560  0.26451809    -0.32770
C4611       C  0.88228337  0.89295653  0.24245974     0.36480
C4612       C  0.85604950  0.87889720  0.23130600    -0.05700
C4613       C  0.83831998  0.85598477  0.24247639    -0.32670
C4614       C  0.84634075  0.84726493  0.26457645     0.36380
H4615       H  0.91046671  0.89582613  0.27246795     0.16750
O4616       O  0.90072047  0.91489744  0.23164555    -0.60170
H4617       H  0.81816128  0.84475112  0.23405741     0.16770
O4618       O  0.82828101  0.82486645  0.27491137    -0.60270
H4619       H  0.82909212  0.81073876  0.26365479     0.43760
H4620       H  0.90965651  0.90890356  0.21836514     0.43720
O4621       O  0.86611058  0.83302416  0.81046453    -0.75170
O4622       O  0.90667761  0.86796937  0.80751423    -0.54080
C4623       C  0.88229424  0.85356743  0.79945727     0.78560
O4624       O  0.87346400  0.83925492  0.94708167    -0.59770
O4625       O  0.87062787  0.80010875  0.95044623    -0.52800
C4626       C  0.86447514  0.81784370  0.95773170     0.70570
O4627       O  0.91321019  0.90140393  0.89492204    -0.74330
O4628       O  0.93233483  0.90711826  0.85365147    -0.54890
C4629       C  0.92363811  0.91426013  0.87448654     0.76570
O4630       O  0.83841780  0.76706735  0.86354382    -0.59470
O4631       O  0.85513218  0.75868759  0.90178718    -0.52590
C4632       C  0.83726008  0.75281751  0.88251121     0.73170
Zr4633     Zr  0.86805867  0.80848025  0.84733980     2.54710
O4634       O  0.82767096  0.80979150  0.85339035    -0.80040
O4635       O  0.84963081  0.77683363  0.80697603    -0.93460
Zr4636     Zr  0.90082322  0.86068921  0.91135112     2.64680
O4637       O  0.86369395  0.86822858  0.91017815    -0.98410
O4638       O  0.92064913  0.89046222  0.95292333    -0.80470
O4639       O  0.89273960  0.85295804  0.86294983    -0.83830
O4640       O  0.87444724  0.81629618  0.89606120    -2.18540
O4641       O  0.91965832  0.76332829  0.85932424    -0.67220
O4642       O  0.90240371  0.75833101  0.90177563    -0.51790
C4643       C  0.91042354  0.75070575  0.88036651     0.71550
O4644       O  0.99439058  0.88388094  0.87434132    -0.60130
O4645       O  0.97713562  0.90520063  0.85499694    -0.52110
C4646       C  0.99567260  0.90504286  0.86889523     0.73350
O4647       O  0.96854970  0.82630142  0.93486001    -0.71520
O4648       O  0.92897915  0.80514327  0.95310677    -0.50200
C4649       C  0.95443704  0.81647720  0.95489917     0.74730
O4650       O  0.95782279  0.82809802  0.80483944    -0.66850
O4651       O  0.95826485  0.86643151  0.80563663    -0.54050
C4652       C  0.96470167  0.85004484  0.79547557     0.73120
Zr4653     Zr  0.93257607  0.80454116  0.84269952     2.77540
O4654       O  0.97290728  0.80242243  0.84192098    -0.97600
O4655       O  0.91180162  0.77304285  0.80257631    -0.78420
Zr4656     Zr  0.96532061  0.85614061  0.90689950     2.70070
O4657       O  0.00953209  0.86552280  0.92017160    -0.79670
O4658       O  0.97931102  0.89143525  0.94348916    -0.98750
Zr4659     Zr  0.93445705  0.86819202  0.84451007     2.21500
Zr4660     Zr  0.89811308  0.79660050  0.91275267     2.11130
O4661       O  0.93923984  0.81139664  0.89145156    -2.47440
O4662       O  0.95902763  0.84865460  0.85819195    -0.79460
O4663       O  0.89181992  0.78922564  0.86320945    -0.71660
O4664       O  0.94248718  0.87710266  0.89349929    -2.32620
O4665       O  0.90893360  0.82393292  0.82713805    -2.28820
O4666       O  0.92456427  0.84147851  0.92796591    -0.73420
H4667       H  0.85721973  0.80910928  0.90318926     0.78580
H4668       H  0.95301712  0.89541835  0.89922367     0.79670
H4669       H  0.94722788  0.80129853  0.89591839     0.81890
H4670       H  0.90681986  0.82184472  0.80722881     0.79500
H4671       H  0.93536562  0.90628472  0.94652663     0.42530
H4672       H  0.96476015  0.88525758  0.95604064     0.41500
H4673       H  0.51364824  0.85586677  0.90551097     0.41180
H4674       H  0.97420024  0.79586448  0.85958659     0.39110
H4675       H  0.89297325  0.76334614  0.80639547     0.42250
H4676       H  0.86128973  0.78524730  0.79205507     0.37030
H4677       H  0.83346756  0.82848235  0.85656494     0.43150
H4678       H  0.84791815  0.85073359  0.90847769     0.39560
H4679       H  0.96910829  0.78811294  0.82760636     0.44480
H4680       H  0.83300543  0.77631940  0.80176859     0.43200
H4681       H  0.86376729  0.87575159  0.92905116     0.43340
H4682       H  0.99386884  0.89157481  0.95415535     0.43700
O4683       O  0.91570971  0.65169018  0.89738210    -0.75170
O4684       O  0.90295649  0.63865431  0.85152271    -0.54080
C4685       C  0.90816232  0.65416258  0.87354559     0.78560
O4686       O  0.99174154  0.59266877  0.89532366    -0.59770
O4687       O  0.97151594  0.56821288  0.93045200    -0.52800
C4688       C  0.99168174  0.58134350  0.91671045     0.70570
O4689       O  0.96943101  0.62116817  0.82436409    -0.74330
O4690       O  0.93154601  0.61945551  0.80918610    -0.54890
C4691       C  0.95581716  0.62529844  0.80681296     0.76570
O4692       O  0.95452947  0.62953361  0.96045670    -0.59470
O4693       O  0.95246191  0.59101711  0.96627352    -0.52590
C4694       C  0.96159705  0.61549368  0.97288692     0.73170
Zr4695     Zr  0.92688250  0.62338880  0.91938557     2.54710
O4696       O  0.96298852  0.66789807  0.92667157    -0.80040
O4697       O  0.90257787  0.63135729  0.95517840    -0.93460
Zr4698     Zr  0.96328463  0.60056015  0.86623591     2.64680
O4699       O  0.00127311  0.64382616  0.87580874    -0.98410
O4700       O  0.98666040  0.58511911  0.83664207    -0.80470
O4701       O  0.93873274  0.62197078  0.87278836    -0.83830
O4702       O  0.95275845  0.60372718  0.91201071    -2.18540
O4703       O  0.85544913  0.52490449  0.93985314    -0.67220
O4704       O  0.89554298  0.53328762  0.95702127    -0.51790
C4705       C  0.87018355  0.52114018  0.95672634     0.71550
O4706       O  0.86436824  0.52954144  0.81928803    -0.60130
O4707       O  0.88140672  0.56746761  0.80078560    -0.52110
C4708       C  0.86853320  0.54247392  0.79845653     0.73350
O4709       O  0.90820552  0.50606903  0.87458850    -0.71520
O4710       O  0.92709575  0.52066326  0.91826421    -0.50200
C4711       C  0.91828765  0.50404381  0.89696463     0.74730
O4712       O  0.83678223  0.55357121  0.86385816    -0.66850
O4713       O  0.85537896  0.58972839  0.84157297    -0.54050
C4714       C  0.83578194  0.57193762  0.85272932     0.73120
Zr4715     Zr  0.86248671  0.55596132  0.90521020     2.77540
O4716       O  0.81604064  0.52421894  0.90716616    -0.97600
O4717       O  0.84894532  0.58109869  0.93540545    -0.78420
Zr4718     Zr  0.89824645  0.53386211  0.85141459     2.70070
O4719       O  0.86719319  0.98819510  0.83838550    -0.79670
O4720       O  0.92063008  0.52751046  0.81246505    -0.98750
Zr4721     Zr  0.89941837  0.59646135  0.84392846     2.21500
Zr4722     Zr  0.92739988  0.56114309  0.92568990     2.11130
O4723       O  0.88732371  0.53494069  0.89791972    -2.47440
O4724       O  0.87302322  0.55395606  0.85843635    -0.79460
O4725       O  0.90154451  0.58128358  0.93423653    -0.71660
O4726       O  0.92461508  0.57551412  0.83725543    -2.32620
O4727       O  0.88756145  0.59839777  0.89121395    -2.28820
O4728       O  0.93800551  0.55799249  0.87887997    -0.73420
H4729       H  0.96953996  0.61361559  0.92218686     0.78580
H4730       H  0.92846720  0.57427590  0.81817722     0.79670
H4731       H  0.87799118  0.51730223  0.90263609     0.81890
H4732       H  0.87683206  0.60646205  0.89280654     0.79500
H4733       H  0.97317525  0.57262716  0.82241457     0.42530
H4734       H  0.92449525  0.51393844  0.81748087     0.41500
H4735       H  0.85336387  0.48362305  0.85173277     0.41180
H4736       H  0.81485798  0.50710307  0.90374323     0.39110
H4737       H  0.85019448  0.57615393  0.95407210     0.42250
H4738       H  0.88992898  0.63464628  0.94509976     0.37030
H4739       H  0.97643436  0.66832722  0.91436876     0.43150
H4740       H  0.00619274  0.64537125  0.89568250     0.39560
H4741       H  0.81208982  0.52541280  0.92674192     0.44480
H4742       H  0.91544604  0.64844214  0.96478067     0.43200
H4743       H  0.51557727  0.64292535  0.86622070     0.43340
H4744       H  0.90677679  0.51884732  0.79728227     0.43700
O4745       O  0.50688493  0.90753458  0.64011726    -0.75170
O4746       O  0.53216736  0.93505867  0.67727816    -0.54080
C4747       C  0.51038190  0.92190890  0.66251081     0.78560
O4748       O  0.57091503  0.83846983  0.62598239    -0.59770
O4749       O  0.58620613  0.85052882  0.58365897    -0.52800
C4750       C  0.57807928  0.83427237  0.60234486     0.70570
O4751       O  0.54140210  0.86934140  0.69411687    -0.74330
O4752       O  0.55143670  0.91041908  0.70964208    -0.54890
C4753       C  0.53928726  0.88579026  0.71099976     0.76570
O4754       O  0.52234928  0.87512079  0.56417809    -0.59470
O4755       O  0.55564178  0.87047704  0.54666770    -0.52590
C4756       C  0.53193059  0.86687721  0.54527166     0.73170
Zr4757     Zr  0.53348320  0.89956045  0.60809163     2.54710
O4758       O  0.99040490  0.86085692  0.60726389    -0.80040
O4759       O  0.51645848  0.92123302  0.58094011    -0.93460
Zr4760     Zr  0.56603399  0.87062765  0.65385311     2.64680
O4761       O  0.52643025  0.82851705  0.65451783    -0.98410
O4762       O  0.58981468  0.86003224  0.68700758    -0.80470
O4763       O  0.54436676  0.89474340  0.65295569    -0.83830
O4764       O  0.55364038  0.87367967  0.60812755    -2.18540
O4765       O  0.61348108  0.96189056  0.55967098    -0.67220
O4766       O  0.60904350  0.92270452  0.54388210    -0.51790
C4767       C  0.61482125  0.94639325  0.54100516     0.71550
O4768       O  0.64650803  0.96343242  0.69226628    -0.60130
O4769       O  0.60946359  0.96157119  0.70901630    -0.52110
C4770       C  0.63432747  0.96985574  0.71021305     0.73350
O4771       O  0.65669589  0.91610740  0.62106328    -0.71520
O4772       O  0.63510335  0.89728235  0.57885533    -0.50200
C4773       C  0.65455145  0.90472465  0.59677824     0.74730
O4774       O  0.60064109  0.99662011  0.63790312    -0.66850
O4775       O  0.58158741  0.98050521  0.67763913    -0.54050
C4776       C  0.59204369  0.99869588  0.66166440     0.73120
Zr4777     Zr  0.60190417  0.96309756  0.60641604     2.77540
O4778       O  0.64610897  0.00022607  0.60693234    -0.97600
O4779       O  0.58239947  0.98327444  0.58040139    -0.78420
Zr4780     Zr  0.63442089  0.93317698  0.65048778     2.70070
O4781       O  0.67791380  0.96928996  0.64430139    -0.79670
O4782       O  0.65107642  0.91490319  0.68292091    -0.98750
Zr4783     Zr  0.57441804  0.93696011  0.67356718     2.21500
Zr4784     Zr  0.59238232  0.89492109  0.58283947     2.11130
O4785       O  0.62271737  0.93752340  0.60507538    -2.47440
O4786       O  0.61415836  0.95890713  0.65093543    -0.79460
O4787       O  0.57202169  0.92118178  0.58392767    -0.71660
O4788       O  0.59612077  0.91221011  0.67572368    -2.32620
O4789       O  0.56233797  0.94189614  0.62863415    -2.29180
O4790       O  0.60432113  0.89139025  0.62900835    -0.73420
H4791       H  0.54180853  0.85647539  0.59941340     0.78580
H4792       H  0.60055477  0.91121015  0.69460506     0.79670
H4793       H  0.63836601  0.94560087  0.59491884     0.81890
H4794       H  0.55371970  0.95210106  0.62927079     0.79500
H4795       H  0.57634120  0.84908886  0.69940019     0.42530
H4796       H  0.64446859  0.89685700  0.67487280     0.41500
H4797       H  0.67519805  0.98430830  0.64338233     0.41180
H4798       H  0.65609363  0.99392339  0.59574031     0.39110
H4799       H  0.57347810  0.97107067  0.56374082     0.42250
H4800       H  0.53072457  0.93135555  0.56889274     0.37030
H4801       H  0.99358976  0.84846899  0.61667680     0.43150
H4802       H  0.52044313  0.82222875  0.63489905     0.39560
H4803       H  0.64420011  0.51227928  0.59551824     0.44480
H4804       H  0.51596460  0.93442998  0.59414245     0.43200
H4805       H  0.53259058  0.81696081  0.66086233     0.43340
H4806       H  0.67023602  0.92374866  0.68066349     0.43700
O4807       O  0.64962414  0.61799307  0.82637361    -0.75170
O4808       O  0.68634113  0.61668072  0.81385144    -0.54080
C4809       C  0.66810257  0.62262235  0.81014952     0.78560
O4810       O  0.67226202  0.63011049  0.96296682    -0.59770
O4811       O  0.63566413  0.59162160  0.96930348    -0.52800
C4812       C  0.65148829  0.61614593  0.97547329     0.70570
O4813       O  0.73024653  0.65480452  0.89901954    -0.74330
O4814       O  0.73403392  0.63780257  0.85673903    -0.54890
C4815       C  0.74185505  0.65599311  0.87663890     0.76570
O4816       O  0.59661710  0.58873111  0.89509311    -0.59470
O4817       O  0.59312507  0.56632072  0.93217502    -0.52590
C4818       C  0.58564441  0.57831013  0.91691513     0.73170
Zr4819     Zr  0.63287485  0.59572427  0.86689021     2.54710
O4820       O  0.63126904  0.63577140  0.87131920    -0.80040
O4821       O  0.59475828  0.57385351  0.83410163    -0.93460
Zr4822     Zr  0.69288137  0.62465700  0.92227835     2.64680
O4823       O  0.69713325  0.66751181  0.92561788    -0.98410
O4824       O  0.72802660  0.63774412  0.95770870    -0.80470
O4825       O  0.67920821  0.61936107  0.87485690    -0.83830
O4826       O  0.64690949  0.60230892  0.91371363    -2.18540
O4827       O  0.59573416  0.50295534  0.88150918    -0.67220
O4828       O  0.59125506  0.51928528  0.92374684    -0.51790
C4829       C  0.58360216  0.50166681  0.90343685     0.71550
O4830       O  0.72856772  0.56610001  0.88761432    -0.60130
O4831       O  0.73344530  0.58811885  0.84999246    -0.52110
C4832       C  0.74084001  0.57677269  0.86655702     0.73350
O4833       O  0.66979720  0.52896827  0.95033029    -0.71520
O4834       O  0.63408434  0.53233459  0.96200398    -0.50200
C4835       C  0.64900374  0.52221690  0.96383438     0.74730
O4836       O  0.66655794  0.52801587  0.83098725    -0.66850
O4837       O  0.68648523  0.56402157  0.80931256    -0.54050
C4838       C  0.67524833  0.53918671  0.80912807     0.73120
Zr4839     Zr  0.63420391  0.53099409  0.85851342     2.77540
O4840       O  0.62246587  0.98572000  0.84899397    -0.97600
O4841       O  0.60596796  0.52127943  0.81703029    -0.78420
Zr4842     Zr  0.69254621  0.55914780  0.91566321     2.70070
O4843       O  0.70204859  0.52385018  0.91524158    -0.79670
O4844       O  0.72653786  0.58317697  0.95260153    -0.98750
Zr4845     Zr  0.69564410  0.59471535  0.85029780     2.21500
Zr4846     Zr  0.63094925  0.56082926  0.93026909     2.11130
O4847       O  0.64663029  0.53557368  0.90572889    -2.47440
O4848       O  0.68003909  0.55356217  0.86794136    -0.79460
O4849       O  0.61680179  0.55446951  0.88256981    -0.71660
O4850       O  0.70924141  0.60022104  0.89848152    -2.32620
O4851       O  0.64897134  0.57159510  0.84143464    -2.28820
O4852       O  0.67723900  0.58407986  0.94080341    -0.73420
H4853       H  0.63973672  0.61209432  0.92292130     0.78580
H4854       H  0.72817626  0.60948123  0.90105571     0.79670
H4855       H  0.63893099  0.51821573  0.91115833     0.81890
H4856       H  0.64419695  0.56950158  0.82195549     0.79500
H4857       H  0.74319291  0.63953192  0.94749125     0.42530
H4858       H  0.71759211  0.57686963  0.96973759     0.41500
H4859       H  0.69015916  0.51107728  0.90011162     0.41180
H4860       H  0.62218370  0.97946166  0.86730027     0.39110
H4861       H  0.58908145  0.51843285  0.82400735     0.42250
H4862       H  0.60170857  0.57118437  0.81651106     0.37030
H4863       H  0.64872703  0.64894254  0.87991139     0.43150
H4864       H  0.67899094  0.66434951  0.92702124     0.39560
H4865       H  0.60388586  0.97644759  0.84173364     0.44480
H4866       H  0.59003181  0.58725995  0.83095622     0.43200
H4867       H  0.70597568  0.67577362  0.94403956     0.43340
H4868       H  0.73846937  0.57597000  0.95079030     0.43700
O4869       O  0.53617537  0.67642043  0.70832479    -0.75170
O4870       O  0.54345516  0.64479334  0.72256276    -0.54080
C4871       C  0.53138720  0.65795198  0.72362278     0.78560
O4872       O  0.52915934  0.64538470  0.57607075    -0.59770
O4873       O  0.56573327  0.68141257  0.56443238    -0.52800
C4874       C  0.54202956  0.66223741  0.55949375     0.70570
O4875       O  0.50653606  0.60193965  0.64770107    -0.74330
O4876       O  0.52643674  0.59971781  0.68702050    -0.54890
C4877       C  0.50642780  0.59159561  0.66972889     0.76570
O4878       O  0.57107872  0.73234296  0.64201916    -0.59470
O4879       O  0.59101263  0.73139240  0.60236366    -0.52590
C4880       C  0.58025597  0.74092121  0.61864448     0.73170
Zr4881     Zr  0.56676787  0.69908590  0.67250952     2.54710
O4882       O  0.53175063  0.70948346  0.67673959    -0.80040
O4883       O  0.59191161  0.73472055  0.70797396    -0.93460
Zr4884     Zr  0.53537174  0.63547581  0.62101879     2.64680
O4885       O  0.99479295  0.63715142  0.62218344    -0.98410
O4886       O  0.51512573  0.59533920  0.59053159    -0.80470
O4887       O  0.54389865  0.65317594  0.66722147    -0.83830
O4888       O  0.55695204  0.68116525  0.62553744    -2.18540
O4889       O  0.66256393  0.73408656  0.64361457    -0.67220
O4890       O  0.64051434  0.73228889  0.60358046    -0.51790
C4891       C  0.66108045  0.74244488  0.62019710     0.71550
O4892       O  0.60025016  0.60358316  0.64960890    -0.60130
O4893       O  0.57572186  0.60004293  0.68656981    -0.52110
C4894       C  0.58874425  0.59262729  0.67080473     0.73350
O4895       O  0.62009498  0.64816364  0.57864967    -0.71520
O4896       O  0.61635056  0.68208971  0.56537263    -0.50200
C4897       C  0.62262465  0.66425367  0.56153060     0.74730
O4898       O  0.64232074  0.67729644  0.71035968    -0.66850
O4899       O  0.60323490  0.64548162  0.72397568    -0.54050
C4900       C  0.62858814  0.65870230  0.72551505     0.73120
Zr4901     Zr  0.63428304  0.70014820  0.67390196     2.77540
O4902       O  0.67990111  0.71066999  0.68006694    -0.97600
O4903       O  0.64462133  0.73553639  0.70923573    -0.78420
Zr4904     Zr  0.60290260  0.63657845  0.62253197     2.70070
O4905       O  0.64594565  0.63995893  0.62391978    -0.79670
O4906       O  0.58201993  0.59619722  0.59242234    -0.98750
Zr4907     Zr  0.57018947  0.63839211  0.68833723     2.21500
Zr4908     Zr  0.59759044  0.69455397  0.60440276     2.11130
O4909       O  0.62588719  0.68236808  0.62687923    -2.47440
O4910       O  0.61167622  0.65423990  0.66873966    -0.79460
O4911       O  0.60732737  0.71351491  0.65152535    -0.71660
O4912       O  0.56154847  0.62069903  0.64147574    -2.32620
O4913       O  0.59339783  0.68521436  0.69525251    -2.28820
O4914       O  0.57532487  0.64860487  0.59969910    -0.73420
H4915       H  0.54632638  0.68673168  0.61609455     0.78580
H4916       H  0.55234784  0.60198371  0.63987300     0.79670
H4917       H  0.64220201  0.68844418  0.61791425     0.81890
H4918       H  0.59626176  0.69102183  0.71472071     0.79500
H4919       H  0.52734828  0.58852273  0.59201127     0.42530
H4920       H  0.57480968  0.60005774  0.57608800     0.41500
H4921       H  0.65586408  0.65296065  0.63974750     0.41180
H4922       H  0.68490784  0.70777860  0.66135952     0.39110
H4923       H  0.64899571  0.75059232  0.69876978     0.42250
H4924       H  0.58124085  0.72974898  0.72429846     0.37030
H4925       H  0.51824160  0.69768971  0.66214765     0.43150
H4926       H  0.99871613  0.65325179  0.61398266     0.39560
H4927       H  0.69005969  0.72968350  0.68475124     0.44480
H4928       H  0.59036454  0.74934024  0.70179171     0.43200
H4929       H  0.98257976  0.62299740  0.60830036     0.43340
H4930       H  0.59679595  0.59424686  0.58560625     0.43700
O4931       O  0.82204981  0.96167583  0.68640310    -0.75170
O4932       O  0.86054283  0.96346324  0.69919690    -0.54080
C4933       C  0.84300781  0.97024125  0.70234754     0.78560
O4934       O  0.76908998  0.83666278  0.61992117    -0.59770
O4935       O  0.76308462  0.84935349  0.57849280    -0.52800
C4936       C  0.75604256  0.83302769  0.59708802     0.70570
O4937       O  0.82870883  0.87010586  0.69066750    -0.74330
O4938       O  0.86153798  0.91137827  0.70325259    -0.54890
C4939       C  0.84789938  0.88732854  0.70709130     0.76570
O4940       O  0.76283251  0.91744885  0.61479975    -0.59470
O4941       O  0.76180760  0.89614221  0.57314972    -0.52590
C4942       C  0.75159137  0.90498146  0.59127895     0.73170
Zr4943     Zr  0.80333831  0.93338872  0.64313371     2.54710
O4944       O  0.76810039  0.91736628  0.67470740    -0.80040
O4945       O  0.80025441  0.97161518  0.63546816    -0.93460
Zr4946     Zr  0.80742015  0.86973577  0.64687792     2.64680
O4947       O  0.77254524  0.85713294  0.67878696    -0.98410
O4948       O  0.80750245  0.82897893  0.64592173    -0.80470
O4949       O  0.82020741  0.91165213  0.66824781    -0.83830
O4950       O  0.78955911  0.89097119  0.62265376    -2.18540
O4951       O  0.83066845  0.95857759  0.56461028    -0.67220
O4952       O  0.81314894  0.92179026  0.53686308    -0.51790
C4953       C  0.82534736  0.94694644  0.54031275     0.71550
O4954       O  0.90353959  0.90673971  0.63092234    -0.60130
O4955       O  0.90562251  0.93253812  0.66916050    -0.52110
C4956       C  0.91430242  0.92016016  0.65415543     0.73350
O4957       O  0.84025971  0.85850945  0.56718781    -0.71520
O4958       O  0.81152376  0.86506845  0.54222746    -0.50200
C4959       C  0.82559080  0.85402691  0.54537580     0.74730
O4960       O  0.90008744  0.99326660  0.62812649    -0.66850
O4961       O  0.90392259  0.97782041  0.66825726    -0.54050
C4962       C  0.91131344  0.99570300  0.65206908     0.73120
Zr4963     Zr  0.86383836  0.96056766  0.59615971     2.77540
O4964       O  0.89505108  0.96906960  0.56049994    -0.97600
O4965       O  0.87406570  0.00510596  0.59346594    -0.78420
Zr4966     Zr  0.86683786  0.89685938  0.59856689     2.70070
O4967       O  0.89641884  0.91738933  0.56243804    -0.79670
O4968       O  0.88660633  0.86933206  0.59383085    -0.98750
Zr4969     Zr  0.86635946  0.93548186  0.66445528     2.21500
Zr4970     Zr  0.80209961  0.89303521  0.57560556     2.11130
O4971       O  0.84935968  0.91816751  0.57374886    -2.47440
O4972       O  0.88206499  0.93936289  0.61934361    -0.79460
O4973       O  0.81723611  0.93603703  0.59748431    -0.71660
O4974       O  0.85332107  0.89296014  0.64424004    -2.32620
O4975       O  0.84944546  0.95805477  0.64120014    -2.28820
O4976       O  0.82057878  0.87219159  0.60076896    -0.73420
H4977       H  0.77070165  0.88095296  0.62320168     0.78580
H4978       H  0.86115273  0.88477165  0.65403715     0.79670
H4979       H  0.85406625  0.91884719  0.55479946     0.81890
H4980       H  0.85588733  0.97544735  0.64968946     0.79500
H4981       H  0.81804420  0.82926145  0.63014292     0.42530
H4982       H  0.87295493  0.85215455  0.59876028     0.41500
H4983       H  0.91334392  0.92995663  0.57253179     0.41180
H4984       H  0.88435107  0.96266791  0.54278286     0.39110
H4985       H  0.86129018  0.00693681  0.60508492     0.42250
H4986       H  0.81850546  0.98624839  0.63860022     0.37030
H4987       H  0.77420122  0.91057433  0.68931314     0.43150
H4988       H  0.75866444  0.85883116  0.66899241     0.39560
H4989       H  0.90486331  0.98816437  0.56052200     0.44480
H4990       H  0.79104032  0.97387216  0.65137380     0.43200
H4991       H  0.76511228  0.83821849  0.67911028     0.43340
H4992       H  0.88829063  0.86677278  0.57378786     0.43700
C4993       C  0.93429716  0.52088199  0.66169175    -0.05350
C4994       C  0.95571882  0.52210169  0.67653014    -0.32770
C4995       C  0.97901898  0.54584968  0.68260505     0.36480
C4996       C  0.98098504  0.56843261  0.67344657    -0.05700
C4997       C  0.95833131  0.56745296  0.66200164    -0.32670
C4998       C  0.93528140  0.54392968  0.65574721     0.36380
H4999       H  0.95490510  0.00450653  0.68207669     0.16750
O5000       O  0.50017195  0.54637929  0.69547379    -0.60170
H5001       H  0.95905972  0.58488034  0.65596400     0.16770
O5002       O  0.91390005  0.54362937  0.64355361    -0.60270
H5003       H  0.91803316  0.54663474  0.62404761     0.43760
H5004       H  0.49911205  0.55051731  0.71536325     0.43720
C5005       C  0.68476887  0.76516846  0.61119301    -0.05350
C5006       C  0.70752578  0.76376005  0.60657494    -0.32770
C5007       C  0.73021105  0.78510515  0.59826892     0.36480
C5008       C  0.73052584  0.80844865  0.59438109    -0.05700
C5009       C  0.70728276  0.80938676  0.59764084    -0.32670
C5010       C  0.68453903  0.78797074  0.60593297     0.36380
H5011       H  0.70785889  0.74618217  0.60984184     0.16750
O5012       O  0.75248798  0.78341316  0.59500946    -0.60170
H5013       H  0.70734016  0.82739360  0.59587961     0.16770
O5014       O  0.66259778  0.78999763  0.61024834    -0.60270
H5015       H  0.66453710  0.79676632  0.62990722     0.43760
H5016       H  0.76005358  0.78533548  0.61397021     0.43720
C5017       C  0.64248151  0.65040677  0.74494207    -0.05350
C5018       C  0.66420505  0.66832910  0.76270728    -0.32770
C5019       C  0.67510520  0.65977102  0.78277362     0.36480
C5020       C  0.66516489  0.63301193  0.78441976    -0.05700
C5021       C  0.64488719  0.61539520  0.76533944    -0.32670
C5022       C  0.63328742  0.62373955  0.74632359     0.36380
H5023       H  0.67166586  0.68890057  0.76219039     0.16750
O5024       O  0.69399314  0.67759848  0.80196348    -0.60170
H5025       H  0.63635702  0.59475643  0.76674787     0.16770
O5026       O  0.61244924  0.60540514  0.72942936    -0.60270
H5027       H  0.59709294  0.59893503  0.74100328     0.43760
H5028       H  0.71093456  0.68082312  0.79471713     0.43720
C5029       C  0.63214761  0.65963572  0.53540344    -0.05350
C5030       C  0.61313771  0.64187836  0.51529226    -0.32770
C5031       C  0.61906877  0.62702126  0.99628332     0.36480
C5032       C  0.64452231  0.63026179  0.99676454    -0.05700
C5033       C  0.66408562  0.64947108  0.51557741    -0.32670
C5034       C  0.65792738  0.66379677  0.53511489     0.36380
H5035       H  0.59301862  0.63787140  0.51584535     0.16750
O5036       O  0.59989832  0.60956388  0.97712518    -0.60170
H5037       H  0.68393004  0.65265659  0.51579135     0.16770
O5038       O  0.67655264  0.68006054  0.55543638    -0.60270
H5039       H  0.68372924  0.69766922  0.54936984     0.43760
H5040       H  0.58959879  0.59377105  0.98669644     0.43720
C5041       C  0.62324025  0.95824832  0.51477459    -0.05350
C5042       C  0.65019563  0.97505514  0.51219972    -0.32770
C5043       C  0.65895996  0.49551745  0.49522205     0.36480
C5044       C  0.64066741  0.50005116  0.98107780    -0.05700
C5045       C  0.61374080  0.98231448  0.98247101    -0.32670
C5046       C  0.60506071  0.96157041  0.49888596     0.36380
H5047       H  0.66451613  0.97362265  0.52511932     0.16750
O5048       O  0.68541820  0.51227006  0.99455307    -0.60170
H5049       H  0.59924811  0.98484403  0.97121126     0.16770
O5050       O  0.57861279  0.94622481  0.50155578    -0.60270
H5051       H  0.57305150  0.93083076  0.48809698     0.43760
H5052       H  0.69153250  0.50385208  0.48050434     0.43720
C5053       C  0.64975837  0.98800320  0.73424653    -0.05350
C5054       C  0.64884865  0.97825670  0.75955716    -0.32770
C5055       C  0.65950707  0.49495116  0.78375103     0.36480
C5056       C  0.67050123  0.52211657  0.78312721    -0.05700
C5057       C  0.67297180  0.53189607  0.75729870    -0.32670
C5058       C  0.66288031  0.51499184  0.73293159     0.36380
H5059       H  0.63902327  0.95749482  0.76070858     0.16750
O5060       O  0.65766805  0.98418874  0.80806373    -0.60170
H5061       H  0.68138516  0.55251882  0.75606282     0.16770
O5062       O  0.66427213  0.52494317  0.70818567    -0.60270
H5063       H  0.68030580  0.52631228  0.70023537     0.43760
H5064       H  0.67465561  0.98470721  0.81112189     0.43720
C5065       C  0.59308164  0.52340652  0.67042149    -0.05350
C5066       C  0.57018361  0.52316976  0.67866622    -0.32770
C5067       C  0.56872484  0.54597635  0.68073045     0.36480
C5068       C  0.59086055  0.56962882  0.67598467    -0.05700
C5069       C  0.61459551  0.57012781  0.67071972    -0.32670
C5070       C  0.61574475  0.54724243  0.66771044     0.36380
H5071       H  0.55284737  0.00497449  0.68148315     0.16750
O5072       O  0.54503067  0.54449413  0.68477110    -0.60170
H5073       H  0.63196147  0.58819765  0.66723753     0.16770
O5074       O  0.63877407  0.54821777  0.66094929    -0.60270
H5075       H  0.64956773  0.55343577  0.67859710     0.43760
H5076       H  0.53630082  0.54068226  0.66603325     0.43720
C5077       C  0.57649211  0.80851265  0.59830392    -0.05350
C5078       C  0.55490356  0.78749829  0.60883960    -0.32770
C5079       C  0.55572816  0.76535810  0.61492748     0.36480
C5080       C  0.57815025  0.76328869  0.60983473    -0.05700
C5081       C  0.59878984  0.78314899  0.59676735    -0.32670
C5082       C  0.59820770  0.80575610  0.59128011     0.36380
H5083       H  0.53785057  0.78901622  0.61422389     0.16750
O5084       O  0.53445058  0.74583107  0.62596893    -0.60170
H5085       H  0.61604493  0.78178638  0.59216462     0.16770
O5086       O  0.61989695  0.82586911  0.58154447    -0.60270
H5087       H  0.61671033  0.82312293  0.56119343     0.43760
H5088       H  0.53577862  0.75189042  0.64578508     0.43720
C5089       C  0.67612708  0.89943523  0.59029179    -0.05350
C5090       C  0.69231345  0.91023227  0.56842705    -0.32770
C5091       C  0.71641452  0.91043014  0.56676059     0.36480
C5092       C  0.72417129  0.89936430  0.58685088    -0.05700
C5093       C  0.70688111  0.88682142  0.60722369    -0.32670
C5094       C  0.68318441  0.88681818  0.60906648     0.36380
H5095       H  0.68726645  0.92017682  0.55392269     0.16750
O5096       O  0.73296553  0.92302814  0.54673304    -0.60170
H5097       H  0.71258360  0.87833501  0.62293972     0.16770
O5098       O  0.66786949  0.87601781  0.63059921    -0.60270
H5099       H  0.65646782  0.85742334  0.62409115     0.43760
H5100       H  0.74392115  0.94124633  0.55482310     0.43720
C5101       C  0.98757490  0.92426900  0.66978049    -0.05350
C5102       C  0.96429099  0.90178397  0.67477155    -0.32770
C5103       C  0.94001667  0.90059420  0.67133826     0.36480
C5104       C  0.93908057  0.92225212  0.66343201    -0.05700
C5105       C  0.96237131  0.94524916  0.66039613    -0.32670
C5106       C  0.98664138  0.94632863  0.66323165     0.36380
H5107       H  0.96478819  0.88448719  0.67905610     0.16750
O5108       O  0.91730101  0.87792272  0.67449475    -0.60170
H5109       H  0.96160741  0.96173548  0.65358611     0.16770
O5110       O  0.00883209  0.96752276  0.65567531    -0.60270
H5111       H  0.00942399  0.98284343  0.66589861     0.43760
H5112       H  0.91276292  0.86767764  0.65622004     0.43720
C5113       C  0.98373436  0.62922376  0.99424514    -0.05350
C5114       C  0.98737675  0.65147100  0.51043732    -0.32770
C5115       C  0.50879492  0.66503639  0.52997547     0.36480
C5116       C  0.52750592  0.65704844  0.53284916    -0.05700
C5117       C  0.52483100  0.63598782  0.51543017    -0.32670
C5118       C  0.00309344  0.62191282  0.99662472     0.36380
H5119       H  0.97303961  0.65775184  0.50870054     0.16750
O5120       O  0.51001297  0.68460074  0.54778793    -0.60170
H5121       H  0.53855204  0.62903080  0.51805096     0.16770
O5122       O  0.00112273  0.60107640  0.98057232    -0.60270
H5123       H  0.49336853  0.58647007  0.99226662     0.43760
H5124       H  0.02250293  0.70083742  0.53997376     0.43720
C5125       C  0.50948324  0.65011845  0.74278689    -0.05350
C5126       C  0.50514360  0.66853467  0.75816577    -0.32770
C5127       C  0.98559598  0.66081987  0.77763708     0.36480
C5128       C  0.96932327  0.63433387  0.78112347    -0.05700
C5129       C  0.97262752  0.61608162  0.76450478    -0.32670
C5130       C  0.99241889  0.62364754  0.74579237     0.36380
H5131       H  0.51783220  0.68898325  0.75619310     0.16750
O5132       O  0.98392256  0.67933901  0.79451929    -0.60170
H5133       H  0.96093480  0.59568297  0.76748222     0.16770
O5134       O  0.99545193  0.60487084  0.73115249    -0.60270
H5135       H  0.97878392  0.59421207  0.71974735     0.43760
H5136       H  0.46987584  0.68136519  0.78553696     0.43720
C5137       C  0.85747962  0.50166670  0.97741228    -0.05350
C5138       C  0.83452887  0.97729085  0.97062799    -0.32770
C5139       C  0.82371158  0.95866096  0.99018645     0.36480
C5140       C  0.83549641  0.96439683  0.51722300    -0.05700
C5141       C  0.85810707  0.98891162  0.52358312    -0.32670
C5142       C  0.86910919  0.50706796  0.50430084     0.36380
H5143       H  0.82522424  0.97249583  0.95000033     0.16750
O5144       O  0.80162376  0.93523947  0.98269629    -0.60170
H5145       H  0.86785764  0.99420858  0.54386497     0.16770
O5146       O  0.89088443  0.53063216  0.51243207    -0.60270
H5147       H  0.90591677  0.52743788  0.51197627     0.43760
H5148       H  0.78670740  0.93782601  0.98758060     0.43720
C5149       C  0.85931696  0.52703318  0.77117255    -0.05350
C5150       C  0.83608107  0.00274342  0.76916636    -0.32770
C5151       C  0.83021487  0.98436904  0.74650365     0.36480
C5152       C  0.84777832  0.98994711  0.72544145    -0.05700
C5153       C  0.87053445  0.51449063  0.72682131    -0.32670
C5154       C  0.87621095  0.53309488  0.74929298     0.36380
H5155       H  0.82304700  0.99748519  0.78596240     0.16750
O5156       O  0.80798110  0.96050789  0.74586147    -0.60170
H5157       H  0.88422134  0.51904330  0.71066519     0.16770
O5158       O  0.89950261  0.55611559  0.75087672    -0.60270
H5159       H  0.89544569  0.56814263  0.74182588     0.43760
H5160       H  0.81351354  0.94953548  0.75496774     0.43720
C5161       C  0.56313433  0.58115482  0.92453931    -0.05350
C5162       C  0.56328517  0.60366458  0.91815631    -0.32770
C5163       C  0.54040285  0.60499749  0.91836765     0.36480
C5164       C  0.51685874  0.58349629  0.92498429    -0.05700
C5165       C  0.51762280  0.56275378  0.93577123    -0.32670
C5166       C  0.54079537  0.56139780  0.93550614     0.36380
H5167       H  0.58090136  0.61978854  0.91142662     0.16750
O5168       O  0.54100005  0.62705268  0.91116341    -0.60170
H5169       H  0.99993226  0.54680564  0.94247340     0.16770
O5170       O  0.54120490  0.54045637  0.94477833    -0.60270
H5171       H  0.52693521  0.52493069  0.93390325     0.43760
H5172       H  0.54343124  0.62717299  0.89104859     0.43720
C5173       C  0.81133785  0.57290997  0.85440892    -0.05350
C5174       C  0.79888052  0.56692380  0.87910593    -0.32770
C5175       C  0.77643888  0.56851033  0.88331293     0.36480
C5176       C  0.76536458  0.57590388  0.86220876    -0.05700
C5177       C  0.77812253  0.58237289  0.83739527    -0.32670
C5178       C  0.80122366  0.58121880  0.83355304     0.36380
H5179       H  0.80706673  0.56168286  0.89585651     0.16750
O5180       O  0.76628284  0.56382993  0.90879170    -0.60170
H5181       H  0.77021898  0.58826805  0.82098283     0.16770
O5182       O  0.81322476  0.58743470  0.80917019    -0.60270
H5183       H  0.82455300  0.60656293  0.81139254     0.43760
H5184       H  0.75676904  0.54470364  0.90885134     0.43720
C5185       C  0.96968986  0.82387991  0.98160797    -0.05350
C5186       C  0.97392697  0.84714463  0.99533757    -0.32770
C5187       C  0.49565828  0.86206101  0.51374786     0.36480
C5188       C  0.51298768  0.85304992  0.52088358    -0.05700
C5189       C  0.50856788  0.82932387  0.50765730    -0.32670
C5190       C  0.98741669  0.81509057  0.98760253     0.36380
H5191       H  0.96154959  0.85504256  0.98989905     0.16750
O5192       O  0.50003516  0.88591062  0.52447668    -0.60170
H5193       H  0.52132885  0.82182282  0.51288359     0.16770
O5194       O  0.98472808  0.79313195  0.97331474    -0.60270
H5195       H  0.97186245  0.77862297  0.98326770     0.43760
H5196       H  0.51299818  0.89844378  0.51268757     0.43720
C5197       C  0.52007618  0.87574314  0.73228963    -0.05350
C5198       C  0.00554211  0.88807894  0.73860081    -0.32770
C5199       C  0.98650144  0.87906712  0.75790603     0.36480
C5200       C  0.98212262  0.85765574  0.77214065    -0.05700
C5201       C  0.99612332  0.84476003  0.76514682    -0.32670
C5202       C  0.51475945  0.85347022  0.74513396     0.36380
H5203       H  0.50861975  0.90464059  0.72812188     0.16750
O5204       O  0.97251762  0.89161707  0.76278803    -0.60170
H5205       H  0.99313786  0.82826002  0.77565350     0.16770
O5206       O  0.52850741  0.84084262  0.73926982    -0.60270
H5207       H  0.51698852  0.82607032  0.72556217     0.43760
H5208       H  0.95679722  0.88241373  0.74971003     0.43720
C5209       C  0.92414720  0.93844768  0.87591853    -0.05350
C5210       C  0.94620295  0.96049086  0.88879130    -0.32770
C5211       C  0.94411902  0.98184484  0.89880979     0.36480
C5212       C  0.91972363  0.98065677  0.89620357    -0.05700
C5213       C  0.89757419  0.95811045  0.88418969    -0.32670
C5214       C  0.89982550  0.93729907  0.87347147     0.36380
H5215       H  0.96463870  0.96074518  0.89189503     0.16750
O5216       O  0.96606683  0.50406253  0.90974257    -0.60170
H5217       H  0.87877880  0.95728551  0.88169907     0.16770
O5218       O  0.87786575  0.91527569  0.86198950    -0.60270
H5219       H  0.87868035  0.91641798  0.84178577     0.43760
H5220       H  0.96783465  0.00134194  0.92931149     0.43720
C5221       C  0.90955173  0.72570157  0.87898659    -0.05350
C5222       C  0.88842592  0.70425639  0.88911719    -0.32770
C5223       C  0.88674115  0.68002376  0.88572612     0.36480
C5224       C  0.90625410  0.67727014  0.87203792    -0.05700
C5225       C  0.92723973  0.69851698  0.86194533    -0.32670
C5226       C  0.92910213  0.72268058  0.86539269     0.36380
H5227       H  0.87320063  0.70624325  0.89938413     0.16750
O5228       O  0.86649035  0.65932574  0.89655023    -0.60170
H5229       H  0.94287456  0.69662267  0.85249679     0.16770
O5230       O  0.95087307  0.74353959  0.85672716    -0.60270
H5231       H  0.94841135  0.74147548  0.83630695     0.43760
H5232       H  0.85305292  0.65004690  0.88102774     0.43720
C5233       C  0.51795040  0.92990156  0.88057953    -0.05350
C5234       C  0.51597962  0.95239496  0.88031058    -0.32770
C5235       C  0.53638601  0.97631889  0.89173442     0.36480
C5236       C  0.55897129  0.97779259  0.90374488    -0.05700
C5237       C  0.56043398  0.95529296  0.90557504    -0.32670
C5238       C  0.54030489  0.93145726  0.89376210     0.36380
H5239       H  0.49892928  0.95168323  0.87049322     0.16750
O5240       O  0.53565925  0.49854272  0.88805197    -0.60170
H5241       H  0.57836964  0.95661219  0.91380415     0.16770
O5242       O  0.54344626  0.91021470  0.89395591    -0.60270
H5243       H  0.55199120  0.90975688  0.87667815     0.43760
H5244       H  0.51891392  0.49593946  0.89529086     0.43720
C5245       C  0.76616121  0.68037616  0.87473109    -0.05350
C5246       C  0.76568532  0.70350388  0.88033849    -0.32770
C5247       C  0.78896639  0.72719432  0.88352481     0.36480
C5248       C  0.81312249  0.72788845  0.88157091    -0.05700
C5249       C  0.81375158  0.70484554  0.87580004    -0.32670
C5250       C  0.79029713  0.68104497  0.87211021     0.36380
H5251       H  0.74717465  0.70309645  0.88279782     0.16750
O5252       O  0.78799211  0.74960587  0.88874271    -0.60170
H5253       H  0.83235893  0.70537964  0.87380493     0.16770
O5254       O  0.79119235  0.65854614  0.86763109    -0.60270
H5255       H  0.79062748  0.65524769  0.84729133     0.43760
H5256       H  0.79008888  0.75329876  0.90911839     0.43720
C5257       C  0.82723574  0.83613918  0.52279340    -0.05350
C5258       C  0.84180411  0.82365197  0.52835625    -0.32770
C5259       C  0.85142581  0.81386660  0.50704753     0.36480
C5260       C  0.84585894  0.81548138  0.97941645    -0.05700
C5261       C  0.82805190  0.82432410  0.97388936    -0.32670
C5262       C  0.81901234  0.83477505  0.99510760     0.36380
H5263       H  0.84788041  0.82346981  0.54940110     0.16750
O5264       O  0.86841708  0.80530663  0.51356471    -0.60170
H5265       H  0.82344397  0.82583243  0.95271257     0.16770
O5266       O  0.80459907  0.84606875  0.98818817    -0.60270
H5267       H  0.78599904  0.83212573  0.98808605     0.43760
H5268       H  0.88600733  0.82111049  0.51625698     0.43720
C5269       C  0.87256017  0.86160210  0.77594272    -0.05350
C5270       C  0.89017155  0.88441557  0.76451805    -0.32770
C5271       C  0.88228339  0.89295650  0.74245970     0.36480
C5272       C  0.85604951  0.87889719  0.73130598    -0.05700
C5273       C  0.83831999  0.85598479  0.74247640    -0.32670
C5274       C  0.84634075  0.84726495  0.76457647     0.36380
H5275       H  0.91046674  0.89582609  0.77246788     0.16750
O5276       O  0.90072050  0.91489738  0.73164547    -0.60170
H5277       H  0.81816127  0.84475115  0.73405745     0.16770
O5278       O  0.82828099  0.82486649  0.77491142    -0.60270
H5279       H  0.82909206  0.81073878  0.76365485     0.43760
H5280       H  0.90965652  0.90890347  0.71836506     0.43720
loop_ 
_geom_bond_atom_site_label_1 
_geom_bond_atom_site_label_2 
_geom_bond_distance 
_geom_bond_site_symmetry_2 
_ccdc_geom_bond_type 
O1          Zr13   2.441       .  S
O1            C3   1.287       .  A
O2          Zr39   2.407       .  S
O2            C3   1.285       .  A
C3          C649   1.485       .  S
O4          Zr16   2.375       .  S
O4            C6   1.275       .  A
O5          Zr40   2.528       .  S
O5            C6   1.306       .  A
C6          C640   1.496       .  S
O7          Zr16   2.376       .  S
O7            C9   1.275       .  A
O8          Zr39   2.398       .  S
O8            C9   1.280       .  A
C9          C589   1.426       .  S
O10         Zr13   2.417       .  S
O10          C12   1.284       .  A
O11         Zr40   2.425       .  S
O11          C12   1.288       .  A
C12         C628   1.456       .  S
Zr13         O14   2.434       .  S
Zr13         O15   2.436       .  S
Zr13         O19   2.359       .  S
Zr13         O20   2.370       .  S
Zr13         O43   2.360       .  S
Zr13         O45   2.366       .  S
O14          H57   0.990       .  S
O15          H56   0.990       .  S
O15          H60   0.990       .  S
Zr16         O17   2.437       .  S
Zr16         O18   2.435       .  S
Zr16         O20   2.359       .  S
Zr16         O19   2.361       .  S
Zr16         O44   2.350       .  S
Zr16         O46   2.370       .  S
O17          H58   0.990       .  S
O17          H61   0.990       .  S
O18          H51   0.990       .  S
O19         Zr39   2.371       .  S
O20         Zr40   2.391       .  S
O20          H47   0.965       .  S
O21         Zr33   2.401       .  S
O21          C23   1.282       .  A
O22         Zr40   2.442       .  S
O22          C23   1.293       .  A
C23         C601   1.465       .  S
O24         Zr36   2.420       .  S
O24          C26   1.278       .  A
O25         Zr39   2.391       .  S
O25          C26   1.278       .  A
C26        C3253   1.469       .  S
O27         Zr36   2.403       .  S
O27          C29   1.271       .  A
O28         Zr40   2.495       .  S
O28          C29   1.298       .  A
C29         C565   1.474       .  S
O30         Zr33   2.448       .  S
O30          C32   1.289       .  A
O31         Zr39   2.398       .  S
O31          C32   1.282       .  A
C32         C580   1.483       .  S
Zr33         O34   2.435       .  S
Zr33         O35   2.434       .  S
Zr33         O41   2.371       .  S
Zr33         O42   2.349       .  S
Zr33         O45   2.355       .  S
Zr33         O43   2.368       .  S
O34          H54   0.990       .  S
O34          H59   0.990       .  S
O35          H55   0.990       .  S
Zr36         O37   2.434       .  S
Zr36         O38   2.438       .  S
Zr36         O42   2.368       .  S
Zr36         O41   2.375       .  S
Zr36         O46   2.384       .  S
Zr36         O44   2.358       .  S
O37        H2693   0.990       .  S
O38          H52   0.989       .  S
O38          H62   0.990       .  S
Zr39         O42   2.378       .  S
Zr39         O44   2.391       .  S
Zr39         O45   2.373       .  S
Zr40         O41   2.407       .  S
Zr40         O43   2.408       .  S
Zr40         O46   2.381       .  S
O41          H49   0.964       .  S
O44          H48   0.966       .  S
O45          H50   0.966       .  S
H53        O2677   0.990       .  S
O63         Zr75   2.408       .  S
O63          C65   1.281       .  A
O64        Zr101   2.422       .  S
O64          C65   1.287       .  A
C65         C604   1.446       .  S
O66         Zr78   2.416       .  S
O66          C68   1.284       .  A
O67        Zr102   2.414       .  S
O67          C68   1.284       .  A
C68        C3184   1.467       .  S
O69         Zr78   2.403       .  S
O69          C71   1.280       .  A
O70        Zr101   2.489       .  S
O70          C71   1.298       .  A
C71         C508   1.482       .  S
O72         Zr75   2.443       .  S
O72          C74   1.288       .  A
O73        Zr102   2.452       .  S
O73          C74   1.293       .  A
C74         C493   1.487       .  S
Zr75         O76   2.434       .  S
Zr75         O77   2.434       .  S
Zr75         O81   2.392       .  S
Zr75         O82   2.354       .  S
Zr75        O105   2.380       .  S
Zr75        O107   2.368       .  S
O76         H119   0.990       .  S
O77         H118   0.990       .  S
O77         H122   0.990       .  S
Zr78         O79   2.435       .  S
Zr78         O80   2.434       .  S
Zr78         O82   2.341       .  S
Zr78         O81   2.366       .  S
Zr78        O106   2.364       .  S
Zr78        O108   2.360       .  S
O79         H120   0.990       .  S
O79        H2763   0.990       .  S
O80         H113   0.990       .  S
O81        Zr101   2.388       .  S
O82        Zr102   2.380       .  S
O82         H109   0.963       .  S
O83         Zr95   2.491       .  S
O83          C85   1.294       .  A
O84        Zr102   2.447       .  S
O84          C85   1.292       .  A
C85         C517   1.506       .  S
O86         Zr98   2.410       .  S
O86          C88   1.276       .  A
O87        Zr101   2.466       .  S
O87          C88   1.290       .  A
C88         C529   1.484       .  S
O89         Zr98   2.368       .  S
O89          C91   1.275       .  A
O90        Zr102   2.408       .  S
O90          C91   1.282       .  A
C91        C1912   1.438   1_545  S
O92         Zr95   2.450       .  S
O92          C94   1.287       .  A
O93        Zr101   2.412       .  S
O93          C94   1.282       .  A
C94         C553   1.469       .  S
Zr95         O96   2.439       .  S
Zr95         O97   2.435       .  S
Zr95        O103   2.366       .  S
Zr95        O104   2.379       .  S
Zr95        O107   2.377       .  S
Zr95        O105   2.382       .  S
O96         H116   0.990       .  S
O96         H121   0.990       .  S
O97         H117   0.990       .  S
Zr98        O100   2.436       .  S
Zr98       O1419   2.434   1_545  S
Zr98        O104   2.339       .  S
Zr98        O103   2.368       .  S
Zr98        O108   2.363       .  S
Zr98        O106   2.353       .  S
O99       Zr1418   2.434       .  S
O99        H1435   0.990       .  S
O100        H114   0.990       .  S
O100        H124   0.990       .  S
Zr101       O104   2.399       .  S
Zr101       O106   2.378       .  S
Zr101       O107   2.427       .  S
Zr102       O103   2.395       .  S
Zr102       O105   2.384       .  S
Zr102       O108   2.390       .  S
O103        H111   0.965       .  S
O106        H110   0.966       .  S
O107        H112   0.966       .  S
H115       O1419   0.990       .  S
H123       O2719   0.990       .  S
O125       Zr137   2.408       .  S
O125        C127   1.281       .  A
O126       Zr163   2.438       .  S
O126        C127   1.287       .  A
C127       C3121   1.461   1_455  S
O128       Zr140   2.402       .  S
O128        C130   1.281       .  A
O129       Zr164   2.495       .  S
O129        C130   1.300       .  A
C130        C457   1.492       .  S
O131       Zr140   2.438       .  S
O131        C133   1.287       .  A
O132       Zr163   2.409       .  S
O132        C133   1.285       .  A
C133        C577   1.473       .  S
O134       Zr137   2.378       .  S
O134        C136   1.276       .  A
O135       Zr164   2.499       .  S
O135        C136   1.299       .  A
C136        C568   1.492       .  S
Zr137       O139   2.436       .  S
Zr137      O2778   2.434   1_455  S
Zr137       O143   2.346       .  S
Zr137       O144   2.369       .  S
Zr137       O167   2.365       .  S
Zr137       O169   2.359       .  S
O138      Zr2777   2.434       .  S
O138        H181   0.990       .  S
O139        H180   0.990       .  S
O139        H184   0.990       .  S
Zr140       O141   2.438       .  S
Zr140       O142   2.434       .  S
Zr140       O144   2.381       .  S
Zr140       O143   2.351       .  S
Zr140       O168   2.366       .  S
Zr140       O170   2.368       .  S
O141        H182   0.990       .  S
O141        H185   0.990       .  S
O142        H175   0.990       .  S
O143       Zr163   2.369       .  S
O144       Zr164   2.402       .  S
O144        H171   0.966       .  S
O145       Zr157   2.392       .  S
O145        C147   1.278       .  A
O146       Zr164   2.499       .  S
O146        C147   1.301       .  A
C147        C421   1.480       .  S
O148       Zr160   2.454       .  S
O148        C150   1.290       .  A
O149       Zr163   2.423       .  S
O149        C150   1.287       .  A
C150        C433   1.470       .  S
O151       Zr160   2.442       .  S
O151        C153   1.289       .  A
O152       Zr164   2.454       .  S
O152        C153   1.292       .  A
C153        C469   1.483       .  S
O154       Zr157   2.458       .  S
O154        C156   1.291       .  A
O155       Zr163   2.411       .  S
O155        C156   1.283       .  A
C156       C1765   1.475       .  S
Zr157       O158   2.436       .  S
Zr157       O159   2.436       .  S
Zr157       O165   2.382       .  S
Zr157       O166   2.345       .  S
Zr157       O169   2.355       .  S
Zr157       O167   2.387       .  S
O158        H178   0.990       .  S
O158       H1503   0.990       .  S
O159        H179   0.990       .  S
Zr160       O161   2.434       .  S
Zr160       O162   2.434       .  S
Zr160       O166   2.365       .  S
Zr160       O165   2.377       .  S
Zr160       O170   2.368       .  S
Zr160       O168   2.381       .  S
O161        H177   0.990       .  S
O162        H176   0.990       .  S
O162        H186   0.990       .  S
Zr163       O166   2.377       .  S
Zr163       O168   2.390       .  S
Zr163       O169   2.375       .  S
Zr164       O165   2.415       .  S
Zr164       O167   2.397       .  S
Zr164       O170   2.401       .  S
O165        H173   0.966       .  S
O168        H172   0.966       .  S
O169        H174   0.966       .  S
H183       O1478   0.990       .  S
O187       Zr199   2.408       .  S
O187        C189   1.281       .  A
O188       Zr225   2.493       .  S
O188        C189   1.299       .  A
C189        C400   1.485       .  S
O190       Zr202   2.422       .  S
O190        C192   1.283       .  A
O191       Zr226   2.451       .  S
O191        C192   1.293       .  A
C192        C412   1.474       .  S
O193       Zr202   2.411       .  S
O193        C195   1.283       .  A
O194       Zr225   2.428       .  S
O194        C195   1.288       .  A
C195        C625   1.459       .  S
O196       Zr199   2.428       .  S
O196        C198   1.288       .  A
O197       Zr226   2.404       .  S
O197        C198   1.282       .  A
C198        C541   1.464       .  S
Zr199       O200   2.434       .  S
Zr199       O201   2.435       .  S
Zr199       O205   2.370       .  S
Zr199       O206   2.348       .  S
Zr199       O229   2.356       .  S
Zr199       O231   2.371       .  S
O200        H243   0.990       .  S
O201        H242   0.990       .  S
O201        H246   0.990       .  S
Zr202       O203   2.437       .  S
Zr202       O204   2.435       .  S
Zr202       O206   2.355       .  S
Zr202       O205   2.378       .  S
Zr202       O230   2.358       .  S
Zr202       O232   2.385       .  S
O203        H244   0.990       .  S
O203        H247   0.990       .  S
O204        H237   0.990       .  S
O205       Zr225   2.388       .  S
O206       Zr226   2.386       .  S
O206        H233   0.964       .  S
O207       Zr219   2.404       .  S
O207        C209   1.279       .  A
O208       Zr226   2.409       .  S
O208        C209   1.282       .  A
C209       C1936   1.443   1_545  S
O210       Zr222   2.413       .  S
O210        C212   1.283       .  A
O211       Zr225   2.440       .  S
O211        C212   1.290       .  A
C212        C556   1.485       .  S
O213       Zr222   2.457       .  S
O213        C215   1.290       .  A
O214       Zr226   2.456       .  S
O214        C215   1.294       .  A
C215        C424   1.497       .  S
O216       Zr219   2.412       .  S
O216        C218   1.276       .  A
O217       Zr225   2.460       .  S
O217        C218   1.289       .  A
C218        C436   1.492       .  S
Zr219       O221   2.435       .  S
Zr219      O1540   2.439   1_545  S
Zr219       O227   2.355       .  S
Zr219       O228   2.354       .  S
Zr219       O231   2.361       .  S
Zr219       O229   2.364       .  S
O220      Zr1539   2.439       .  S
O220        H240   0.990       .  S
O220        H245   0.990       .  S
O221        H241   0.990       .  S
Zr222       O223   2.433       .  S
Zr222       O224   2.434       .  S
Zr222       O228   2.374       .  S
Zr222       O227   2.361       .  S
Zr222       O232   2.368       .  S
Zr222       O230   2.374       .  S
O223        H239   0.990       .  S
O224        H238   0.990       .  S
O224        H248   0.990       .  S
Zr225       O228   2.395       .  S
Zr225       O230   2.411       .  S
Zr225       O231   2.392       .  S
Zr226       O227   2.385       .  S
Zr226       O229   2.392       .  S
Zr226       O232   2.384       .  S
O227        H235   0.964       .  S
O230        H234   0.966       .  S
O231        H236   0.966       .  S
O249       Zr261   2.481       .  S
O249        C251   1.295       .  A
O250       Zr287   2.443       .  S
O250        C251   1.293       .  A
C251        C505   1.501       .  S
O252       Zr264   2.381       .  S
O252        C254   1.275       .  A
O253       Zr288   2.470       .  S
O253        C254   1.293       .  A
C254        C496   1.466       .  S
O255       Zr264   2.382       .  S
O255        C257   1.278       .  A
O256       Zr287   2.454       .  S
O256        C257   1.291       .  A
C257       C3016   1.475   1_455  S
O258       Zr261   2.487       .  S
O258        C260   1.298       .  A
O259       Zr288   2.425       .  S
O259        C260   1.286       .  A
C260        C460   1.495       .  S
Zr261       O262   2.433       .  S
Zr261       O263   2.434       .  S
Zr261       O267   2.369       .  S
Zr261       O268   2.383       .  S
Zr261       O291   2.374       .  S
Zr261       O293   2.395       .  S
O262        H305   0.990       .  S
O263        H304   0.990       .  S
O263        H308   0.990       .  S
Zr264       O266   2.435       .  S
Zr264      O2905   2.436   1_455  S
Zr264       O268   2.359       .  S
Zr264       O267   2.346       .  S
Zr264       O292   2.361       .  S
Zr264       O294   2.361       .  S
O265      Zr2904   2.436       .  S
O265        H306   0.990       .  S
O265        H309   0.990       .  S
O266        H299   0.990       .  S
O267       Zr287   2.381       .  S
O268       Zr288   2.389       .  S
O268        H295   0.966       .  S
O269       Zr281   2.498       .  S
O269        C271   1.299       .  A
O270       Zr288   2.411       .  S
O270        C271   1.284       .  A
C271        C385   1.486       .  S
O272       Zr284   2.399       .  S
O272        C274   1.280       .  A
O273       Zr287   2.464       .  S
O273        C274   1.293       .  A
C274        C448   1.479       .  S
O275       Zr284   2.381       .  S
O275        C277   1.276       .  A
O276       Zr288   2.458       .  S
O276        C277   1.291       .  A
C277        C409   1.459       .  S
O278       Zr281   2.496       .  S
O278        C280   1.298       .  A
O279       Zr287   2.434       .  S
O279        C280   1.291       .  A
C280        C397   1.502       .  S
Zr281       O282   2.437       .  S
Zr281       O283   2.434       .  S
Zr281       O289   2.384       .  S
Zr281       O290   2.369       .  S
Zr281       O293   2.396       .  S
Zr281       O291   2.381       .  S
O282        H302   0.990       .  S
O282        H307   0.990       .  S
O283        H303   0.990       .  S
Zr284       O285   2.434       .  S
Zr284       O286   2.435       .  S
Zr284       O290   2.345       .  S
Zr284       O289   2.363       .  S
Zr284       O294   2.367       .  S
Zr284       O292   2.360       .  S
O285        H301   0.990       .  S
O286        H300   0.990       .  S
O286        H310   0.990       .  S
Zr287       O290   2.381       .  S
Zr287       O292   2.375       .  S
Zr287       O293   2.418       .  S
Zr288       O289   2.400       .  S
Zr288       O291   2.406       .  S
Zr288       O294   2.372       .  S
O289        H297   0.966       .  S
O292        H296   0.966       .  S
O293        H298   0.966       .  S
O311       Zr323   2.457       .  S
O311        C313   1.290       .  A
O312       Zr349   2.433       .  S
O312        C313   1.288       .  A
C313        C532   1.479       .  S
O314       Zr326   2.405       .  S
O314        C316   1.281       .  A
O315       Zr350   2.492       .  S
O315        C316   1.300       .  A
C316        C388   1.483       .  S
O317       Zr326   2.449       .  S
O317        C319   1.289       .  A
O318       Zr349   2.400       .  S
O318        C319   1.282       .  A
C319        C652   1.479       .  S
O320       Zr323   2.433       .  S
O320        C322   1.288       .  A
O321       Zr350   2.466       .  S
O321        C322   1.295       .  A
C322        C472   1.482       .  S
Zr323       O324   2.434       .  S
Zr323       O325   2.435       .  S
Zr323       O329   2.377       .  S
Zr323       O330   2.370       .  S
Zr323       O353   2.370       .  S
Zr323       O355   2.363       .  S
O324        H367   0.990       .  S
O325        H366   0.990       .  S
O325        H370   0.990       .  S
Zr326       O327   2.435       .  S
Zr326       O328   2.434       .  S
Zr326       O330   2.370       .  S
Zr326       O329   2.371       .  S
Zr326       O354   2.353       .  S
Zr326       O356   2.378       .  S
O327        H368   0.990       .  S
O327        H371   0.990       .  S
O328        H361   0.990       .  S
O329       Zr349   2.374       .  S
O330       Zr350   2.411       .  S
O330        H357   0.965       .  S
O331       Zr343   2.413       .  S
O331        C333   1.275       .  A
O332       Zr350   2.523       .  S
O332        C333   1.299       .  A
C333        C520   1.514       .  S
O334       Zr346   2.443       .  S
O334        C336   1.287       .  A
O335       Zr349   2.407       .  S
O335        C336   1.282       .  A
C336        C484   1.459       .  S
O337       Zr346   2.419       .  S
O337        C339   1.281       .  A
O338       Zr350   2.503       .  S
O338        C339   1.302       .  A
C339        C637   1.511       .  S
O340       Zr343   2.463       .  S
O340        C342   1.292       .  A
O341       Zr349   2.382       .  S
O341        C342   1.278       .  A
C342       C1693   1.469       .  S
Zr343       O344   2.439       .  S
Zr343       O345   2.434       .  S
Zr343       O351   2.394       .  S
Zr343       O352   2.357       .  S
Zr343       O355   2.352       .  S
Zr343       O353   2.384       .  S
O344        H364   0.990       .  S
O344        H369   0.990       .  S
O345        H365   0.990       .  S
Zr346       O347   2.436       .  S
Zr346       O348   2.439       .  S
Zr346       O352   2.364       .  S
Zr346       O351   2.374       .  S
Zr346       O356   2.372       .  S
Zr346       O354   2.363       .  S
O347        H363   0.990       .  S
O348        H362   0.990       .  S
O348        H372   0.990       .  S
Zr349       O352   2.379       .  S
Zr349       O354   2.380       .  S
Zr349       O355   2.371       .  S
Zr350       O351   2.421       .  S
Zr350       O353   2.409       .  S
Zr350       O356   2.402       .  S
O351        H359   0.966       .  S
O354        H358   0.965       .  S
O355        H360   0.965       .  S
C373       C1662   1.469   1_545  S
C373        C374   1.408       .  A
C373        C378   1.402       .  A
C374        C375   1.403       .  A
C374       H1699   1.084       .  S
C375        C376   1.404       .  A
C375       O3020   1.368       .  S
C376       C2897   1.475       .  S
C376        C377   1.407       .  A
C377        C378   1.390       .  A
C377        H381   1.084       .  S
C378        O382   1.372       .  S
H379       C1694   1.084       .  S
O380       C3015   1.368   1_455  S
O380        H384   0.992   1_455  S
O382        H383   0.992       .  S
C385        C386   1.401       .  A
C385        C390   1.412       .  A
C386        C387   1.405       .  A
C386        H391   1.084       .  S
C387        C388   1.413       .  A
C387        O392   1.372       .  S
C388        C389   1.405       .  A
C389        C390   1.409       .  A
C389        H393   1.084       .  S
C390        O394   1.371       .  S
O392        H396   0.992       .  S
O394        H395   0.992       .  S
C397        C398   1.410       .  A
C397        C402   1.413       .  A
C398        C399   1.418       .  A
C398        H403   1.083       .  S
C399        C400   1.413       .  A
C399        O404   1.371       .  S
C400        C401   1.400       .  A
C401        C402   1.400       .  A
C401        H405   1.085       .  S
C402        O406   1.368       .  S
O404        H408   0.992       .  S
O406        H407   0.992       .  S
C409        C410   1.400       .  A
C409        C414   1.408       .  A
C410       C1071   1.398   1_554  A
C410        H415   1.084       .  S
C411        C412   1.409       .  A
C411       C1070   1.398       .  A
C411        O416   1.370       .  S
C412       C1073   1.404       .  A
C413        C414   1.400       .  A
C413       C1072   1.404   1_554  A
C413        H417   1.084       .  S
C414        O418   1.372       .  S
O416        H420   0.992       .  S
O418        H419   0.992       .  S
C421        C422   1.406       .  A
C421        C426   1.410   1_554  A
C422       C1743   1.410   1_554  A
C422        H427   1.084       .  S
C423       C1742   1.410   1_556  A
C423       C1084   1.413   1_565  A
C423       O1088   1.371   1_565  S
C424       C1083   1.413   1_545  A
C424       C1745   1.407   1_545  A
C425       C1744   1.407       .  A
C425       C1086   1.405       .  A
C425        H429   1.084       .  S
C426       C1085   1.405       .  A
C426        O430   1.372   1_556  S
O428       C1083   1.371   1_545  S
O428       H1092   0.992       .  S
O430        H431   0.992   1_554  S
H432       O1088   0.992       .  S
C433        C434   1.394       .  A
C433       C1758   1.407       .  A
C434       C1755   1.396       .  A
C434        H439   1.084       .  S
C435        C436   1.421   1_565  A
C435       C1754   1.396       .  A
C435       O1760   1.371       .  S
C436        C437   1.407       .  A
C437        C438   1.406       .  A
C437        H441   1.083       .  S
C438       C1753   1.407   1_545  A
C438        O442   1.371       .  S
O440       C1755   1.371       .  S
O440        H444   0.991       .  S
O442        H443   0.992       .  S
C445       C1476   1.475   1_545  S
C445        C446   1.403       .  A
C445        C450   1.403       .  A
C446        C447   1.403       .  A
C446       H1771   1.080       .  S
C447        C448   1.406       .  A
C447        O452   1.368       .  S
C448        C449   1.408       .  A
C449        C450   1.398       .  A
C449        H453   1.084       .  S
C450        O454   1.371       .  S
H451       C1766   1.080       .  S
O452        H456   0.992       .  S
O454        H455   0.992       .  S
C457        C458   1.410       .  A
C457        C462   1.409       .  A
C458        C459   1.401       .  A
C458        H463   1.084       .  S
C459        C460   1.407       .  A
C459        O464   1.372       .  S
C460        C461   1.413       .  A
C461        C462   1.413       .  A
C461        H465   1.082       .  S
C462        O466   1.371       .  S
O464        H468   0.992       .  S
O466        H467   0.991       .  S
C469        C470   1.408       .  A
C469        C474   1.408       .  A
C470        C471   1.414       .  A
C470        H475   1.083       .  S
C471        C472   1.410       .  A
C471        O476   1.371       .  S
C472        C473   1.403       .  A
C473        C474   1.396       .  A
C473        H477   1.084       .  S
C474        O478   1.372       .  S
O476        H480   0.992       .  S
O478        H479   0.991       .  S
C481       C2767   1.461       .  S
C481        C482   1.404       .  A
C481        C486   1.406       .  A
C482        C483   1.399       .  A
C482        H487   1.084       .  S
C483        C484   1.404       .  A
C483        O488   1.372       .  S
C484        C485   1.397       .  A
C485        C486   1.399       .  A
C485        H489   1.084       .  S
C486        O490   1.373       .  S
O488        H492   0.992       .  S
O490        H491   0.992       .  S
C493        C498   1.412       .  A
C493       C1154   1.408       .  A
C494       C1153   1.408   1_554  A
C494       C3135   1.406       .  A
C494        H499   1.083       .  S
C495        C496   1.408       .  A
C495       C3134   1.406   1_455  A
C495        O500   1.371       .  S
C496        C497   1.400       .  A
C497       C3798   1.398   1_554  A
C497        H501   1.085       .  S
C498       C3797   1.398       .  A
C498        O502   1.370       .  S
O500       H3144   0.992       .  S
O502       H3143   0.992       .  S
H503       O3142   0.992   1_655  S
H504       O3140   0.992       .  S
C505        C506   1.412       .  A
C505       C3150   1.412   1_455  A
C506       C3147   1.416   1_455  A
C506        H511   1.083       .  S
C507        C508   1.411       .  A
C507       C3146   1.416       .  A
C507        O512   1.371       .  S
C508        C509   1.400       .  A
C509        C510   1.401       .  A
C509        H513   1.085       .  S
C510       C3145   1.412       .  A
C510        O514   1.370       .  S
O512       H3156   0.992       .  S
O514        H515   0.991       .  S
H516       O3152   0.992       .  S
C517       C1838   1.417   1_545  A
C517       C1182   1.405       .  A
C518        C519   1.425       .  A
C518       C1837   1.417       .  A
C518        H523   1.083       .  S
C519       C1180   1.413       .  A
C519        O524   1.370       .  S
C520        C521   1.411       .  A
C520       C1179   1.413   1_554  A
C521       C1842   1.399       .  A
C521        H525   1.076       .  S
C522       C1177   1.405   1_554  A
C522       C1841   1.399   1_545  A
C522        O526   1.373       .  S
O524        H528   0.992       .  S
O526        H527   0.992       .  S
C529        C534   1.410       .  A
C529       C1850   1.409       .  A
C530        C531   1.402       .  A
C530       C1849   1.409       .  A
C530        H535   1.084       .  S
C531        C532   1.404       .  A
C531        O536   1.372       .  S
C532       C1853   1.406       .  A
C533        C534   1.406       .  A
C533       C1852   1.406   1_545  A
C533        H537   1.084       .  S
C534        O538   1.371       .  S
O536        H540   0.992       .  S
O538        H539   0.992       .  S
C541        C542   1.399       .  A
C541        C546   1.408       .  A
C542        C543   1.386       .  A
C542        H547   1.084       .  S
C543        C544   1.407       .  A
C543        O548   1.373       .  S
C544       C2708   1.467   1_455  S
C544        C545   1.403       .  A
C545        C546   1.403       .  A
C545       H3189   1.082   1_455  S
C546        O550   1.374       .  S
O548        H552   0.992       .  S
H549       C3185   1.082       .  S
O550        H551   0.991       .  S
C553        C554   1.394       .  A
C553        C558   1.408       .  A
C554        C555   1.385       .  A
C554        H559   1.083       .  S
C555        C556   1.418       .  A
C555        O560   1.373       .  S
C556        C557   1.409       .  A
C557        C558   1.407       .  A
C557        H561   1.083       .  S
C558        O562   1.371       .  S
O560        H564   0.992       .  S
O562        H563   0.992       .  S
C565        C566   1.395       .  A
C565        C570   1.415       .  A
C566       C3867   1.392       .  A
C566        H571   1.084       .  S
C567        C568   1.417   1_655  A
C567       C3866   1.392   1_554  A
C567        O572   1.373   1_655  S
C568        C569   1.407       .  A
C569       C3870   1.416   1_454  A
C569        H573   1.083       .  S
C570       C3869   1.416       .  A
C570        O574   1.371       .  S
O572        H576   0.992       .  S
O574        H575   0.992       .  S
C577        C582   1.408       .  A
C577       C3218   1.401       .  A
C578        C579   1.392       .  A
C578       C3217   1.401       .  A
C578       H3223   1.084       .  S
C579        C580   1.414       .  A
C579        O584   1.372       .  S
C580        C581   1.408       .  A
C581       C3222   1.402       .  A
C581        H585   1.083       .  S
C582       C3221   1.402   1_455  A
C582        O586   1.372       .  S
H583       C3218   1.084       .  S
O584        H588   0.992       .  S
O586        H587   0.992       .  S
C589        C590   1.399       .  A
C589        C594   1.399       .  A
C590        C591   1.393       .  A
C590        H595   1.084       .  S
C591        C592   1.402       .  A
C591       O1916   1.370       .  S
C592       C1411   1.438       .  S
C592        C593   1.401       .  A
C593        C594   1.378       .  A
C593        H597   1.085       .  S
C594        O598   1.373       .  S
O596       C1911   1.370   1_545  S
O596       H1920   0.992       .  S
O598        H599   0.992       .  S
H600       O1916   0.992       .  S
C601        C602   1.401       .  A
C601        C606   1.414       .  A
C602        C603   1.397       .  A
C602        H607   1.084       .  S
C603        C604   1.407       .  A
C603        O608   1.372       .  S
C604        C605   1.391       .  A
C605        C606   1.389       .  A
C605        H609   1.085       .  S
C606        O610   1.372       .  S
O608        H612   0.992       .  S
O610        H611   0.992       .  S
C613       C2666   1.469   1_455  S
C613        C614   1.406       .  A
C613        C618   1.410       .  A
C614        C615   1.394       .  A
C614        H619   1.083   1_455  S
C615        C616   1.401       .  A
C615       O1940   1.374       .  S
C616       C1529   1.443       .  S
C616        C617   1.398       .  A
C617        C618   1.391       .  A
C617        H621   1.085       .  S
C618        O622   1.371       .  S
O620       C1935   1.374       .  S
O620        H624   0.992       .  S
O622        H623   0.992       .  S
C625        C626   1.401       .  A
C625        C630   1.407       .  A
C626        C627   1.391       .  A
C626        H631   1.084       .  S
C627        C628   1.404       .  A
C627        O632   1.372       .  S
C628        C629   1.402       .  A
C629        C630   1.400       .  A
C629        H633   1.084       .  S
C630        O634   1.372       .  S
O632        H636   0.992       .  S
O634        H635   0.992       .  S
C637        C638   1.421       .  A
C637       C1302   1.408   1_554  A
C638        C639   1.411       .  A
C638        H643   1.083       .  S
C639       C1300   1.402   1_554  A
C639        O644   1.371       .  S
C640        C641   1.417       .  A
C640       C1299   1.402       .  A
C641        C642   1.409       .  A
C641        H645   1.084       .  S
C642       C1297   1.408       .  A
C642        O646   1.371       .  S
O644        H648   0.992       .  S
O646        H647   0.992       .  S
C649        C650   1.404       .  A
C649        C654   1.415       .  A
C650        C651   1.391       .  A
C650        H655   1.083       .  S
C651        C652   1.412       .  A
C651        O656   1.372       .  S
C652        C653   1.404       .  A
C653        C654   1.402       .  A
C653        H657   1.083       .  S
C654        O658   1.371       .  S
O656        H660   0.992       .  S
O658        H659   0.992       .  S
O661       Zr673   2.441       .  S
O661        C663   1.287       .  A
O662       Zr699   2.407       .  S
O662        C663   1.285       .  A
C663       C1309   1.485       .  S
O664       Zr676   2.375       .  S
O664        C666   1.275       .  A
O665       Zr700   2.528       .  S
O665        C666   1.306       .  A
C666       C1300   1.496       .  S
O667       Zr676   2.376       .  S
O667        C669   1.275       .  A
O668       Zr699   2.398       .  S
O668        C669   1.280       .  A
C669       C1249   1.426       .  S
O670       Zr673   2.417       .  S
O670        C672   1.284       .  A
O671       Zr700   2.425       .  S
O671        C672   1.288       .  A
C672       C1288   1.456       .  S
Zr673       O674   2.434       .  S
Zr673       O675   2.436       .  S
Zr673       O679   2.359       .  S
Zr673       O680   2.370       .  S
Zr673       O703   2.360       .  S
Zr673       O705   2.366       .  S
O674        H717   0.990       .  S
O675        H716   0.990       .  S
O675        H720   0.990       .  S
Zr676       O677   2.437       .  S
Zr676       O678   2.435       .  S
Zr676       O680   2.359       .  S
Zr676       O679   2.361       .  S
Zr676       O704   2.350       .  S
Zr676       O706   2.370       .  S
O677        H718   0.990       .  S
O677        H721   0.990       .  S
O678        H711   0.990       .  S
O679       Zr699   2.371       .  S
O680       Zr700   2.391       .  S
O680        H707   0.965       .  S
O681       Zr693   2.401       .  S
O681        C683   1.282       .  A
O682       Zr700   2.442       .  S
O682        C683   1.293       .  A
C683       C1261   1.465       .  S
O684       Zr696   2.420       .  S
O684        C686   1.278       .  A
O685       Zr699   2.391       .  S
O685        C686   1.278       .  A
C686       C3913   1.469       .  S
O687       Zr696   2.403       .  S
O687        C689   1.271       .  A
O688       Zr700   2.495       .  S
O688        C689   1.298       .  A
C689       C1225   1.474       .  S
O690       Zr693   2.448       .  S
O690        C692   1.289       .  A
O691       Zr699   2.398       .  S
O691        C692   1.282       .  A
C692       C1240   1.483       .  S
Zr693       O694   2.435       .  S
Zr693       O695   2.434       .  S
Zr693       O701   2.371       .  S
Zr693       O702   2.349       .  S
Zr693       O705   2.355       .  S
Zr693       O703   2.368       .  S
O694        H714   0.990       .  S
O694        H719   0.990       .  S
O695        H715   0.990       .  S
Zr696       O697   2.434       .  S
Zr696       O698   2.438       .  S
Zr696       O702   2.368       .  S
Zr696       O701   2.375       .  S
Zr696       O706   2.384       .  S
Zr696       O704   2.358       .  S
O697       H3353   0.990       .  S
O698        H712   0.989       .  S
O698        H722   0.990       .  S
Zr699       O702   2.378       .  S
Zr699       O704   2.391       .  S
Zr699       O705   2.373       .  S
Zr700       O701   2.407       .  S
Zr700       O703   2.408       .  S
Zr700       O706   2.381       .  S
O701        H709   0.964       .  S
O704        H708   0.966       .  S
O705        H710   0.966       .  S
H713       O3337   0.990       .  S
O723       Zr735   2.408       .  S
O723        C725   1.281       .  A
O724       Zr761   2.422       .  S
O724        C725   1.287       .  A
C725       C1264   1.446       .  S
O726       Zr738   2.416       .  S
O726        C728   1.284       .  A
O727       Zr762   2.414       .  S
O727        C728   1.284       .  A
C728       C3844   1.467       .  S
O729       Zr738   2.403       .  S
O729        C731   1.280       .  A
O730       Zr761   2.489       .  S
O730        C731   1.298       .  A
C731       C1168   1.482       .  S
O732       Zr735   2.443       .  S
O732        C734   1.288       .  A
O733       Zr762   2.452       .  S
O733        C734   1.293       .  A
C734       C1153   1.487       .  S
Zr735       O736   2.434       .  S
Zr735       O737   2.434       .  S
Zr735       O741   2.392       .  S
Zr735       O742   2.354       .  S
Zr735       O765   2.380       .  S
Zr735       O767   2.368       .  S
O736        H779   0.990       .  S
O737        H778   0.990       .  S
O737        H782   0.990       .  S
Zr738       O739   2.435       .  S
Zr738       O740   2.434       .  S
Zr738       O742   2.341       .  S
Zr738       O741   2.366       .  S
Zr738       O766   2.364       .  S
Zr738       O768   2.360       .  S
O739        H780   0.990       .  S
O739       H3423   0.990       .  S
O740        H773   0.990       .  S
O741       Zr761   2.388       .  S
O742       Zr762   2.380       .  S
O742        H769   0.963       .  S
O743       Zr755   2.491       .  S
O743        C745   1.294       .  A
O744       Zr762   2.447       .  S
O744        C745   1.292       .  A
C745       C1177   1.506       .  S
O746       Zr758   2.410       .  S
O746        C748   1.276       .  A
O747       Zr761   2.466       .  S
O747        C748   1.290       .  A
C748       C1189   1.484       .  S
O749       Zr758   2.368       .  S
O749        C751   1.275       .  A
O750       Zr762   2.408       .  S
O750        C751   1.282       .  A
C751       C2572   1.438   1_545  S
O752       Zr755   2.450       .  S
O752        C754   1.287       .  A
O753       Zr761   2.412       .  S
O753        C754   1.282       .  A
C754       C1213   1.469       .  S
Zr755       O756   2.439       .  S
Zr755       O757   2.435       .  S
Zr755       O763   2.366       .  S
Zr755       O764   2.379       .  S
Zr755       O767   2.377       .  S
Zr755       O765   2.382       .  S
O756        H776   0.990       .  S
O756        H781   0.990       .  S
O757        H777   0.990       .  S
Zr758      O2079   2.434   1_545  S
Zr758       O760   2.436       .  S
Zr758       O764   2.339       .  S
Zr758       O763   2.368       .  S
Zr758       O768   2.363       .  S
Zr758       O766   2.353       .  S
O759      Zr2078   2.434       .  S
O759       H2095   0.990       .  S
O760        H774   0.990       .  S
O760        H784   0.990       .  S
Zr761       O764   2.399       .  S
Zr761       O766   2.378       .  S
Zr761       O767   2.427       .  S
Zr762       O763   2.395       .  S
Zr762       O765   2.384       .  S
Zr762       O768   2.390       .  S
O763        H771   0.965       .  S
O766        H770   0.966       .  S
O767        H772   0.966       .  S
H775       O2079   0.990       .  S
H783       O3379   0.990       .  S
O785       Zr797   2.408       .  S
O785        C787   1.281       .  A
O786       Zr823   2.438       .  S
O786        C787   1.287       .  A
C787       C3781   1.461   1_455  S
O788       Zr800   2.402       .  S
O788        C790   1.281       .  A
O789       Zr824   2.495       .  S
O789        C790   1.300       .  A
C790       C1117   1.492       .  S
O791       Zr800   2.438       .  S
O791        C793   1.287       .  A
O792       Zr823   2.409       .  S
O792        C793   1.285       .  A
C793       C1237   1.473       .  S
O794       Zr797   2.378       .  S
O794        C796   1.276       .  A
O795       Zr824   2.499       .  S
O795        C796   1.299       .  A
C796       C1228   1.492       .  S
Zr797      O3438   2.434   1_455  S
Zr797       O799   2.436       .  S
Zr797       O803   2.346       .  S
Zr797       O804   2.369       .  S
Zr797       O827   2.365       .  S
Zr797       O829   2.359       .  S
O798      Zr3437   2.434       .  S
O798        H841   0.990       .  S
O799        H840   0.990       .  S
O799        H844   0.990       .  S
Zr800       O801   2.438       .  S
Zr800       O802   2.434       .  S
Zr800       O804   2.381       .  S
Zr800       O803   2.351       .  S
Zr800       O828   2.366       .  S
Zr800       O830   2.368       .  S
O801        H842   0.990       .  S
O801        H845   0.990       .  S
O802        H835   0.990       .  S
O803       Zr823   2.369       .  S
O804       Zr824   2.402       .  S
O804        H831   0.966       .  S
O805       Zr817   2.392       .  S
O805        C807   1.278       .  A
O806       Zr824   2.499       .  S
O806        C807   1.301       .  A
C807       C1081   1.480       .  S
O808       Zr820   2.454       .  S
O808        C810   1.290       .  A
O809       Zr823   2.423       .  S
O809        C810   1.287       .  A
C810       C1093   1.470       .  S
O811       Zr820   2.442       .  S
O811        C813   1.289       .  A
O812       Zr824   2.454       .  S
O812        C813   1.292       .  A
C813       C1129   1.483       .  S
O814       Zr817   2.458       .  S
O814        C816   1.291       .  A
O815       Zr823   2.411       .  S
O815        C816   1.283       .  A
C816       C2425   1.475       .  S
Zr817       O818   2.436       .  S
Zr817       O819   2.436       .  S
Zr817       O825   2.382       .  S
Zr817       O826   2.345       .  S
Zr817       O829   2.355       .  S
Zr817       O827   2.387       .  S
O818        H838   0.990       .  S
O818       H2163   0.990       .  S
O819        H839   0.990       .  S
Zr820       O821   2.434       .  S
Zr820       O822   2.434       .  S
Zr820       O826   2.365       .  S
Zr820       O825   2.377       .  S
Zr820       O830   2.368       .  S
Zr820       O828   2.381       .  S
O821        H837   0.990       .  S
O822        H836   0.990       .  S
O822        H846   0.990       .  S
Zr823       O826   2.377       .  S
Zr823       O828   2.390       .  S
Zr823       O829   2.375       .  S
Zr824       O825   2.415       .  S
Zr824       O827   2.397       .  S
Zr824       O830   2.401       .  S
O825        H833   0.966       .  S
O828        H832   0.966       .  S
O829        H834   0.966       .  S
H843       O2138   0.990       .  S
O847       Zr859   2.408       .  S
O847        C849   1.281       .  A
O848       Zr885   2.493       .  S
O848        C849   1.299       .  A
C849       C1060   1.485       .  S
O850       Zr862   2.422       .  S
O850        C852   1.283       .  A
O851       Zr886   2.451       .  S
O851        C852   1.293       .  A
C852       C1072   1.474       .  S
O853       Zr862   2.411       .  S
O853        C855   1.283       .  A
O854       Zr885   2.428       .  S
O854        C855   1.288       .  A
C855       C1285   1.459       .  S
O856       Zr859   2.428       .  S
O856        C858   1.288       .  A
O857       Zr886   2.404       .  S
O857        C858   1.282       .  A
C858       C1201   1.464       .  S
Zr859       O860   2.434       .  S
Zr859       O861   2.435       .  S
Zr859       O865   2.370       .  S
Zr859       O866   2.348       .  S
Zr859       O889   2.356       .  S
Zr859       O891   2.371       .  S
O860        H903   0.990       .  S
O861        H902   0.990       .  S
O861        H906   0.990       .  S
Zr862       O863   2.437       .  S
Zr862       O864   2.435       .  S
Zr862       O866   2.355       .  S
Zr862       O865   2.378       .  S
Zr862       O890   2.358       .  S
Zr862       O892   2.385       .  S
O863        H904   0.990       .  S
O863        H907   0.990       .  S
O864        H897   0.990       .  S
O865       Zr885   2.388       .  S
O866       Zr886   2.386       .  S
O866        H893   0.964       .  S
O867       Zr879   2.404       .  S
O867        C869   1.279       .  A
O868       Zr886   2.409       .  S
O868        C869   1.282       .  A
C869       C2596   1.443   1_545  S
O870       Zr882   2.413       .  S
O870        C872   1.283       .  A
O871       Zr885   2.440       .  S
O871        C872   1.290       .  A
C872       C1216   1.485       .  S
O873       Zr882   2.457       .  S
O873        C875   1.290       .  A
O874       Zr886   2.456       .  S
O874        C875   1.294       .  A
C875       C1084   1.497       .  S
O876       Zr879   2.412       .  S
O876        C878   1.276       .  A
O877       Zr885   2.460       .  S
O877        C878   1.289       .  A
C878       C1096   1.492       .  S
Zr879      O2200   2.439   1_545  S
Zr879       O881   2.435       .  S
Zr879       O887   2.355       .  S
Zr879       O888   2.354       .  S
Zr879       O891   2.361       .  S
Zr879       O889   2.364       .  S
O880      Zr2199   2.439       .  S
O880        H900   0.990       .  S
O880        H905   0.990       .  S
O881        H901   0.990       .  S
Zr882       O883   2.433       .  S
Zr882       O884   2.434       .  S
Zr882       O888   2.374       .  S
Zr882       O887   2.361       .  S
Zr882       O892   2.368       .  S
Zr882       O890   2.374       .  S
O883        H899   0.990       .  S
O884        H898   0.990       .  S
O884        H908   0.990       .  S
Zr885       O888   2.395       .  S
Zr885       O890   2.411       .  S
Zr885       O891   2.392       .  S
Zr886       O887   2.385       .  S
Zr886       O889   2.392       .  S
Zr886       O892   2.384       .  S
O887        H895   0.964       .  S
O890        H894   0.966       .  S
O891        H896   0.966       .  S
O909       Zr921   2.481       .  S
O909        C911   1.295       .  A
O910       Zr947   2.443       .  S
O910        C911   1.293       .  A
C911       C1165   1.501       .  S
O912       Zr924   2.381       .  S
O912        C914   1.275       .  A
O913       Zr948   2.470       .  S
O913        C914   1.293       .  A
C914       C1156   1.466       .  S
O915       Zr924   2.382       .  S
O915        C917   1.278       .  A
O916       Zr947   2.454       .  S
O916        C917   1.291       .  A
C917       C3676   1.475   1_455  S
O918       Zr921   2.487       .  S
O918        C920   1.298       .  A
O919       Zr948   2.425       .  S
O919        C920   1.286       .  A
C920       C1120   1.495       .  S
Zr921       O922   2.433       .  S
Zr921       O923   2.434       .  S
Zr921       O927   2.369       .  S
Zr921       O928   2.383       .  S
Zr921       O951   2.374       .  S
Zr921       O953   2.395       .  S
O922        H965   0.990       .  S
O923        H964   0.990       .  S
O923        H968   0.990       .  S
Zr924      O3565   2.436   1_455  S
Zr924       O926   2.435       .  S
Zr924       O928   2.359       .  S
Zr924       O927   2.346       .  S
Zr924       O952   2.361       .  S
Zr924       O954   2.361       .  S
O925      Zr3564   2.436       .  S
O925        H966   0.990       .  S
O925        H969   0.990       .  S
O926        H959   0.990       .  S
O927       Zr947   2.381       .  S
O928       Zr948   2.389       .  S
O928        H955   0.966       .  S
O929       Zr941   2.498       .  S
O929        C931   1.299       .  A
O930       Zr948   2.411       .  S
O930        C931   1.284       .  A
C931       C1045   1.486       .  S
O932       Zr944   2.399       .  S
O932        C934   1.280       .  A
O933       Zr947   2.464       .  S
O933        C934   1.293       .  A
C934       C1108   1.479       .  S
O935       Zr944   2.381       .  S
O935        C937   1.276       .  A
O936       Zr948   2.458       .  S
O936        C937   1.291       .  A
C937       C1069   1.459       .  S
O938       Zr941   2.496       .  S
O938        C940   1.298       .  A
O939       Zr947   2.434       .  S
O939        C940   1.291       .  A
C940       C1057   1.502       .  S
Zr941       O942   2.437       .  S
Zr941       O943   2.434       .  S
Zr941       O949   2.384       .  S
Zr941       O950   2.369       .  S
Zr941       O953   2.396       .  S
Zr941       O951   2.381       .  S
O942        H962   0.990       .  S
O942        H967   0.990       .  S
O943        H963   0.990       .  S
Zr944       O945   2.434       .  S
Zr944       O946   2.435       .  S
Zr944       O950   2.345       .  S
Zr944       O949   2.363       .  S
Zr944       O954   2.367       .  S
Zr944       O952   2.360       .  S
O945        H961   0.990       .  S
O946        H960   0.990       .  S
O946        H970   0.990       .  S
Zr947       O950   2.381       .  S
Zr947       O952   2.375       .  S
Zr947       O953   2.418       .  S
Zr948       O949   2.400       .  S
Zr948       O951   2.406       .  S
Zr948       O954   2.372       .  S
O949        H957   0.966       .  S
O952        H956   0.966       .  S
O953        H958   0.966       .  S
O971       Zr983   2.457       .  S
O971        C973   1.290       .  A
O972      Zr1009   2.433       .  S
O972        C973   1.288       .  A
C973       C1192   1.479       .  S
O974       Zr986   2.405       .  S
O974        C976   1.281       .  A
O975      Zr1010   2.492       .  S
O975        C976   1.300       .  A
C976       C1048   1.483       .  S
O977       Zr986   2.449       .  S
O977        C979   1.289       .  A
O978      Zr1009   2.400       .  S
O978        C979   1.282       .  A
C979       C1312   1.479       .  S
O980       Zr983   2.433       .  S
O980        C982   1.288       .  A
O981      Zr1010   2.466       .  S
O981        C982   1.295       .  A
C982       C1132   1.482       .  S
Zr983       O984   2.434       .  S
Zr983       O985   2.435       .  S
Zr983       O989   2.377       .  S
Zr983       O990   2.370       .  S
Zr983      O1013   2.370       .  S
Zr983      O1015   2.363       .  S
O984       H1027   0.990       .  S
O985       H1026   0.990       .  S
O985       H1030   0.990       .  S
Zr986       O987   2.435       .  S
Zr986       O988   2.434       .  S
Zr986       O990   2.370       .  S
Zr986       O989   2.371       .  S
Zr986      O1014   2.353       .  S
Zr986      O1016   2.378       .  S
O987       H1028   0.990       .  S
O987       H1031   0.990       .  S
O988       H1021   0.990       .  S
O989      Zr1009   2.374       .  S
O990      Zr1010   2.411       .  S
O990       H1017   0.965       .  S
O991      Zr1003   2.413       .  S
O991        C993   1.275       .  A
O992      Zr1010   2.523       .  S
O992        C993   1.299       .  A
C993       C1180   1.514       .  S
O994      Zr1006   2.443       .  S
O994        C996   1.287       .  A
O995      Zr1009   2.407       .  S
O995        C996   1.282       .  A
C996       C1144   1.459       .  S
O997      Zr1006   2.419       .  S
O997        C999   1.281       .  A
O998      Zr1010   2.503       .  S
O998        C999   1.302       .  A
C999       C1297   1.511       .  S
O1000     Zr1003   2.463       .  S
O1000      C1002   1.292       .  A
O1001     Zr1009   2.382       .  S
O1001      C1002   1.278       .  A
C1002      C2353   1.469       .  S
Zr1003     O1004   2.439       .  S
Zr1003     O1005   2.434       .  S
Zr1003     O1011   2.394       .  S
Zr1003     O1012   2.357       .  S
Zr1003     O1015   2.352       .  S
Zr1003     O1013   2.384       .  S
O1004      H1024   0.990       .  S
O1004      H1029   0.990       .  S
O1005      H1025   0.990       .  S
Zr1006     O1007   2.436       .  S
Zr1006     O1008   2.439       .  S
Zr1006     O1012   2.364       .  S
Zr1006     O1011   2.374       .  S
Zr1006     O1016   2.372       .  S
Zr1006     O1014   2.363       .  S
O1007      H1023   0.990       .  S
O1008      H1022   0.990       .  S
O1008      H1032   0.990       .  S
Zr1009     O1012   2.379       .  S
Zr1009     O1014   2.380       .  S
Zr1009     O1015   2.371       .  S
Zr1010     O1011   2.421       .  S
Zr1010     O1013   2.409       .  S
Zr1010     O1016   2.402       .  S
O1011      H1019   0.966       .  S
O1014      H1018   0.965       .  S
O1015      H1020   0.965       .  S
C1033      C2322   1.469   1_545  S
C1033      C1034   1.408       .  A
C1033      C1038   1.402       .  A
C1034      C1035   1.403       .  A
C1034      H2359   1.084       .  S
C1035      C1036   1.404       .  A
C1035      O3680   1.368       .  S
C1036      C3557   1.475       .  S
C1036      C1037   1.407       .  A
C1037      C1038   1.390       .  A
C1037      H1041   1.084       .  S
C1038      O1042   1.372       .  S
H1039      C2354   1.084       .  S
O1040      C3675   1.368   1_455  S
O1040      H1044   0.992   1_455  S
O1042      H1043   0.992       .  S
C1045      C1046   1.401       .  A
C1045      C1050   1.412       .  A
C1046      C1047   1.405       .  A
C1046      H1051   1.084       .  S
C1047      C1048   1.413       .  A
C1047      O1052   1.372       .  S
C1048      C1049   1.405       .  A
C1049      C1050   1.409       .  A
C1049      H1053   1.084       .  S
C1050      O1054   1.371       .  S
O1052      H1056   0.992       .  S
O1054      H1055   0.992       .  S
C1057      C1058   1.410       .  A
C1057      C1062   1.413       .  A
C1058      C1059   1.418       .  A
C1058      H1063   1.083       .  S
C1059      C1060   1.413       .  A
C1059      O1064   1.371       .  S
C1060      C1061   1.400       .  A
C1061      C1062   1.400       .  A
C1061      H1065   1.085       .  S
C1062      O1066   1.368       .  S
O1064      H1068   0.992       .  S
O1066      H1067   0.992       .  S
C1069      C1070   1.400       .  A
C1069      C1074   1.408       .  A
C1070      H1075   1.084       .  S
C1071      C1072   1.409       .  A
C1071      O1076   1.370       .  S
C1073      C1074   1.400       .  A
C1073      H1077   1.084       .  S
C1074      O1078   1.372       .  S
O1076      H1080   0.992       .  S
O1078      H1079   0.992       .  S
C1081      C1082   1.406       .  A
C1081      C1086   1.410       .  A
C1082      C2403   1.410       .  A
C1082      H1087   1.084       .  S
C1083      C2402   1.410       .  A
C1084      C2405   1.407   1_545  A
C1085      C2404   1.407       .  A
C1085      H1089   1.084       .  S
C1086      O1090   1.372       .  S
O1090      H1091   0.992       .  S
C1093      C1094   1.394       .  A
C1093      C2418   1.407       .  A
C1094      C2415   1.396       .  A
C1094      H1099   1.084       .  S
C1095      C2414   1.396       .  A
C1095      C1096   1.421   1_565  A
C1095      O2420   1.371       .  S
C1096      C1097   1.407       .  A
C1097      C1098   1.406       .  A
C1097      H1101   1.083       .  S
C1098      C2413   1.407   1_545  A
C1098      O1102   1.371       .  S
O1100      C2415   1.371       .  S
O1100      H1104   0.991       .  S
O1102      H1103   0.992       .  S
C1105      C2136   1.475   1_545  S
C1105      C1106   1.403       .  A
C1105      C1110   1.403       .  A
C1106      C1107   1.403       .  A
C1106      H2431   1.080       .  S
C1107      C1108   1.406       .  A
C1107      O1112   1.368       .  S
C1108      C1109   1.408       .  A
C1109      C1110   1.398       .  A
C1109      H1113   1.084       .  S
C1110      O1114   1.371       .  S
H1111      C2426   1.080       .  S
O1112      H1116   0.992       .  S
O1114      H1115   0.992       .  S
C1117      C1118   1.410       .  A
C1117      C1122   1.409       .  A
C1118      C1119   1.401       .  A
C1118      H1123   1.084       .  S
C1119      C1120   1.407       .  A
C1119      O1124   1.372       .  S
C1120      C1121   1.413       .  A
C1121      C1122   1.413       .  A
C1121      H1125   1.082       .  S
C1122      O1126   1.371       .  S
O1124      H1128   0.992       .  S
O1126      H1127   0.991       .  S
C1129      C1130   1.408       .  A
C1129      C1134   1.408       .  A
C1130      C1131   1.414       .  A
C1130      H1135   1.083       .  S
C1131      C1132   1.410       .  A
C1131      O1136   1.371       .  S
C1132      C1133   1.403       .  A
C1133      C1134   1.396       .  A
C1133      H1137   1.084       .  S
C1134      O1138   1.372       .  S
O1136      H1140   0.992       .  S
O1138      H1139   0.991       .  S
C1141      C3427   1.461       .  S
C1141      C1142   1.404       .  A
C1141      C1146   1.406       .  A
C1142      C1143   1.399       .  A
C1142      H1147   1.084       .  S
C1143      C1144   1.404       .  A
C1143      O1148   1.372       .  S
C1144      C1145   1.397       .  A
C1145      C1146   1.399       .  A
C1145      H1149   1.084       .  S
C1146      O1150   1.373       .  S
O1148      H1152   0.992       .  S
O1150      H1151   0.992       .  S
C1153      C1158   1.412       .  A
C1154      C3795   1.406       .  A
C1154      H1159   1.083       .  S
C1155      C3794   1.406   1_455  A
C1155      C1156   1.408       .  A
C1155      O1160   1.371       .  S
C1156      C1157   1.400       .  A
C1157      C3138   1.398       .  A
C1157      H1161   1.085       .  S
C1158      C3137   1.398   1_556  A
C1158      O1162   1.370       .  S
O1160      H3804   0.992       .  S
O1162      H3803   0.992       .  S
H1163      O3802   0.992   1_655  S
H1164      O3800   0.992       .  S
C1165      C1166   1.412       .  A
C1165      C3810   1.412   1_455  A
C1166      C3807   1.416   1_455  A
C1166      H1171   1.083       .  S
C1167      C3806   1.416       .  A
C1167      C1168   1.411       .  A
C1167      O1172   1.371       .  S
C1168      C1169   1.400       .  A
C1169      C1170   1.401       .  A
C1169      H1173   1.085       .  S
C1170      C3805   1.412       .  A
C1170      O1174   1.370       .  S
O1172      H3816   0.992       .  S
O1174      H1175   0.991       .  S
H1176      O3812   0.992       .  S
C1177      C2498   1.417   1_545  A
C1178      C2497   1.417       .  A
C1178      C1179   1.425       .  A
C1178      H1183   1.083       .  S
C1179      O1184   1.370       .  S
C1180      C1181   1.411       .  A
C1181      C2502   1.399       .  A
C1181      H1185   1.076       .  S
C1182      C2501   1.399   1_545  A
C1182      O1186   1.373       .  S
O1184      H1188   0.992       .  S
O1186      H1187   0.992       .  S
C1189      C2510   1.409       .  A
C1189      C1194   1.410       .  A
C1190      C2509   1.409       .  A
C1190      C1191   1.402       .  A
C1190      H1195   1.084       .  S
C1191      C1192   1.404       .  A
C1191      O1196   1.372       .  S
C1192      C2513   1.406       .  A
C1193      C2512   1.406   1_545  A
C1193      C1194   1.406       .  A
C1193      H1197   1.084       .  S
C1194      O1198   1.371       .  S
O1196      H1200   0.992       .  S
O1198      H1199   0.992       .  S
C1201      C1202   1.399       .  A
C1201      C1206   1.408       .  A
C1202      C1203   1.386       .  A
C1202      H1207   1.084       .  S
C1203      C1204   1.407       .  A
C1203      O1208   1.373       .  S
C1204      C3368   1.467   1_455  S
C1204      C1205   1.403       .  A
C1205      C1206   1.403       .  A
C1205      H3849   1.082   1_455  S
C1206      O1210   1.374       .  S
O1208      H1212   0.992       .  S
H1209      C3845   1.082       .  S
O1210      H1211   0.991       .  S
C1213      C1214   1.394       .  A
C1213      C1218   1.408       .  A
C1214      C1215   1.385       .  A
C1214      H1219   1.083       .  S
C1215      C1216   1.418       .  A
C1215      O1220   1.373       .  S
C1216      C1217   1.409       .  A
C1217      C1218   1.407       .  A
C1217      H1221   1.083       .  S
C1218      O1222   1.371       .  S
O1220      H1224   0.992       .  S
O1222      H1223   0.992       .  S
C1225      C1226   1.395       .  A
C1225      C1230   1.415       .  A
C1226      C3207   1.392   1_556  A
C1226      H1231   1.084       .  S
C1227      C3206   1.392       .  A
C1227      C1228   1.417   1_655  A
C1227      O1232   1.373   1_655  S
C1228      C1229   1.407       .  A
C1229      C3210   1.416   1_455  A
C1229      H1233   1.083       .  S
C1230      C3209   1.416   1_556  A
C1230      O1234   1.371       .  S
O1232      H1236   0.992       .  S
O1234      H1235   0.992       .  S
C1237      C3878   1.401       .  A
C1237      C1242   1.408       .  A
C1238      C3877   1.401       .  A
C1238      C1239   1.392       .  A
C1238      H3883   1.084       .  S
C1239      C1240   1.414       .  A
C1239      O1244   1.372       .  S
C1240      C1241   1.408       .  A
C1241      C3882   1.402       .  A
C1241      H1245   1.083       .  S
C1242      C3881   1.402   1_455  A
C1242      O1246   1.372       .  S
H1243      C3878   1.084       .  S
O1244      H1248   0.992       .  S
O1246      H1247   0.992       .  S
C1249      C1250   1.399       .  A
C1249      C1254   1.399       .  A
C1250      C1251   1.393       .  A
C1250      H1255   1.084       .  S
C1251      C1252   1.402       .  A
C1251      O2576   1.370       .  S
C1252      C2071   1.438       .  S
C1252      C1253   1.401       .  A
C1253      C1254   1.378       .  A
C1253      H1257   1.085       .  S
C1254      O1258   1.373       .  S
O1256      C2571   1.370   1_545  S
O1256      H2580   0.992       .  S
O1258      H1259   0.992       .  S
H1260      O2576   0.992       .  S
C1261      C1262   1.401       .  A
C1261      C1266   1.414       .  A
C1262      C1263   1.397       .  A
C1262      H1267   1.084       .  S
C1263      C1264   1.407       .  A
C1263      O1268   1.372       .  S
C1264      C1265   1.391       .  A
C1265      C1266   1.389       .  A
C1265      H1269   1.085       .  S
C1266      O1270   1.372       .  S
O1268      H1272   0.992       .  S
O1270      H1271   0.992       .  S
C1273      C3326   1.469   1_455  S
C1273      C1274   1.406       .  A
C1273      C1278   1.410       .  A
C1274      C1275   1.394       .  A
C1274      H1279   1.083   1_455  S
C1275      C1276   1.401       .  A
C1275      O2600   1.374       .  S
C1276      C2189   1.443       .  S
C1276      C1277   1.398       .  A
C1277      C1278   1.391       .  A
C1277      H1281   1.085       .  S
C1278      O1282   1.371       .  S
O1280      C2595   1.374       .  S
O1280      H1284   0.992       .  S
O1282      H1283   0.992       .  S
C1285      C1286   1.401       .  A
C1285      C1290   1.407       .  A
C1286      C1287   1.391       .  A
C1286      H1291   1.084       .  S
C1287      C1288   1.404       .  A
C1287      O1292   1.372       .  S
C1288      C1289   1.402       .  A
C1289      C1290   1.400       .  A
C1289      H1293   1.084       .  S
C1290      O1294   1.372       .  S
O1292      H1296   0.992       .  S
O1294      H1295   0.992       .  S
C1297      C1298   1.421       .  A
C1298      C1299   1.411       .  A
C1298      H1303   1.083       .  S
C1299      O1304   1.371       .  S
C1300      C1301   1.417       .  A
C1301      C1302   1.409       .  A
C1301      H1305   1.084       .  S
C1302      O1306   1.371       .  S
O1304      H1308   0.992       .  S
O1306      H1307   0.992       .  S
C1309      C1310   1.404       .  A
C1309      C1314   1.415       .  A
C1310      C1311   1.391       .  A
C1310      H1315   1.083       .  S
C1311      C1312   1.412       .  A
C1311      O1316   1.372       .  S
C1312      C1313   1.404       .  A
C1313      C1314   1.402       .  A
C1313      H1317   1.083       .  S
C1314      O1318   1.371       .  S
O1316      H1320   0.992       .  S
O1318      H1319   0.992       .  S
O1321     Zr1333   2.441       .  S
O1321      C1323   1.287       .  A
O1322     Zr1359   2.407       .  S
O1322      C1323   1.285       .  A
C1323      C1969   1.485       .  S
O1324     Zr1336   2.375       .  S
O1324      C1326   1.275       .  A
O1325     Zr1360   2.528       .  S
O1325      C1326   1.306       .  A
C1326      C1960   1.496       .  S
O1327     Zr1336   2.376       .  S
O1327      C1329   1.275       .  A
O1328     Zr1359   2.398       .  S
O1328      C1329   1.280       .  A
C1329      C1909   1.426       .  S
O1330     Zr1333   2.417       .  S
O1330      C1332   1.284       .  A
O1331     Zr1360   2.425       .  S
O1331      C1332   1.288       .  A
C1332      C1948   1.456       .  S
Zr1333     O1334   2.434       .  S
Zr1333     O1335   2.436       .  S
Zr1333     O1339   2.359       .  S
Zr1333     O1340   2.370       .  S
Zr1333     O1363   2.360       .  S
Zr1333     O1365   2.366       .  S
O1334      H1377   0.990       .  S
O1335      H1376   0.990       .  S
O1335      H1380   0.990       .  S
Zr1336     O1337   2.437       .  S
Zr1336     O1338   2.435       .  S
Zr1336     O1340   2.359       .  S
Zr1336     O1339   2.361       .  S
Zr1336     O1364   2.350       .  S
Zr1336     O1366   2.370       .  S
O1337      H1378   0.990       .  S
O1337      H1381   0.990       .  S
O1338      H1371   0.990       .  S
O1339     Zr1359   2.371       .  S
O1340     Zr1360   2.391       .  S
O1340      H1367   0.965       .  S
O1341     Zr1353   2.401       .  S
O1341      C1343   1.282       .  A
O1342     Zr1360   2.442       .  S
O1342      C1343   1.293       .  A
C1343      C1921   1.465       .  S
O1344     Zr1356   2.420       .  S
O1344      C1346   1.278       .  A
O1345     Zr1359   2.391       .  S
O1345      C1346   1.278       .  A
C1346      C4573   1.469       .  S
O1347     Zr1356   2.403       .  S
O1347      C1349   1.271       .  A
O1348     Zr1360   2.495       .  S
O1348      C1349   1.298       .  A
C1349      C1885   1.474       .  S
O1350     Zr1353   2.448       .  S
O1350      C1352   1.289       .  A
O1351     Zr1359   2.398       .  S
O1351      C1352   1.282       .  A
C1352      C1900   1.483       .  S
Zr1353     O1354   2.435       .  S
Zr1353     O1355   2.434       .  S
Zr1353     O1361   2.371       .  S
Zr1353     O1362   2.349       .  S
Zr1353     O1365   2.355       .  S
Zr1353     O1363   2.368       .  S
O1354      H1374   0.990       .  S
O1354      H1379   0.990       .  S
O1355      H1375   0.990       .  S
Zr1356     O1357   2.434       .  S
Zr1356     O1358   2.438       .  S
Zr1356     O1362   2.368       .  S
Zr1356     O1361   2.375       .  S
Zr1356     O1366   2.384       .  S
Zr1356     O1364   2.358       .  S
O1357      H4013   0.990       .  S
O1358      H1372   0.989       .  S
O1358      H1382   0.990       .  S
Zr1359     O1362   2.378       .  S
Zr1359     O1364   2.391       .  S
Zr1359     O1365   2.373       .  S
Zr1360     O1361   2.407       .  S
Zr1360     O1363   2.408       .  S
Zr1360     O1366   2.381       .  S
O1361      H1369   0.964       .  S
O1364      H1368   0.966       .  S
O1365      H1370   0.966       .  S
H1373      O3997   0.990       .  S
O1383     Zr1395   2.408       .  S
O1383      C1385   1.281       .  A
O1384     Zr1421   2.422       .  S
O1384      C1385   1.287       .  A
C1385      C1924   1.446       .  S
O1386     Zr1398   2.416       .  S
O1386      C1388   1.284       .  A
O1387     Zr1422   2.414       .  S
O1387      C1388   1.284       .  A
C1388      C4504   1.467       .  S
O1389     Zr1398   2.403       .  S
O1389      C1391   1.280       .  A
O1390     Zr1421   2.489       .  S
O1390      C1391   1.298       .  A
C1391      C1828   1.482       .  S
O1392     Zr1395   2.443       .  S
O1392      C1394   1.288       .  A
O1393     Zr1422   2.452       .  S
O1393      C1394   1.293       .  A
C1394      C1813   1.487       .  S
Zr1395     O1396   2.434       .  S
Zr1395     O1397   2.434       .  S
Zr1395     O1401   2.392       .  S
Zr1395     O1402   2.354       .  S
Zr1395     O1425   2.380       .  S
Zr1395     O1427   2.368       .  S
O1396      H1439   0.990       .  S
O1397      H1438   0.990       .  S
O1397      H1442   0.990       .  S
Zr1398     O1399   2.435       .  S
Zr1398     O1400   2.434       .  S
Zr1398     O1402   2.341       .  S
Zr1398     O1401   2.366       .  S
Zr1398     O1426   2.364       .  S
Zr1398     O1428   2.360       .  S
O1399      H1440   0.990       .  S
O1399      H4083   0.990       .  S
O1400      H1433   0.990       .  S
O1401     Zr1421   2.388       .  S
O1402     Zr1422   2.380       .  S
O1402      H1429   0.963       .  S
O1403     Zr1415   2.491       .  S
O1403      C1405   1.294       .  A
O1404     Zr1422   2.447       .  S
O1404      C1405   1.292       .  A
C1405      C1837   1.506       .  S
O1406     Zr1418   2.410       .  S
O1406      C1408   1.276       .  A
O1407     Zr1421   2.466       .  S
O1407      C1408   1.290       .  A
C1408      C1849   1.484       .  S
O1409     Zr1418   2.368       .  S
O1409      C1411   1.275       .  A
O1410     Zr1422   2.408       .  S
O1410      C1411   1.282       .  A
O1412     Zr1415   2.450       .  S
O1412      C1414   1.287       .  A
O1413     Zr1421   2.412       .  S
O1413      C1414   1.282       .  A
C1414      C1873   1.469       .  S
Zr1415     O1416   2.439       .  S
Zr1415     O1417   2.435       .  S
Zr1415     O1423   2.366       .  S
Zr1415     O1424   2.379       .  S
Zr1415     O1427   2.377       .  S
Zr1415     O1425   2.382       .  S
O1416      H1436   0.990       .  S
O1416      H1441   0.990       .  S
O1417      H1437   0.990       .  S
Zr1418     O1420   2.436       .  S
Zr1418     O1424   2.339       .  S
Zr1418     O1423   2.368       .  S
Zr1418     O1428   2.363       .  S
Zr1418     O1426   2.353       .  S
O1420      H1434   0.990       .  S
O1420      H1444   0.990       .  S
Zr1421     O1424   2.399       .  S
Zr1421     O1426   2.378       .  S
Zr1421     O1427   2.427       .  S
Zr1422     O1423   2.395       .  S
Zr1422     O1425   2.384       .  S
Zr1422     O1428   2.390       .  S
O1423      H1431   0.965       .  S
O1426      H1430   0.966       .  S
O1427      H1432   0.966       .  S
H1443      O4039   0.990       .  S
O1445     Zr1457   2.408       .  S
O1445      C1447   1.281       .  A
O1446     Zr1483   2.438       .  S
O1446      C1447   1.287       .  A
C1447      C4441   1.461   1_455  S
O1448     Zr1460   2.402       .  S
O1448      C1450   1.281       .  A
O1449     Zr1484   2.495       .  S
O1449      C1450   1.300       .  A
C1450      C1777   1.492       .  S
O1451     Zr1460   2.438       .  S
O1451      C1453   1.287       .  A
O1452     Zr1483   2.409       .  S
O1452      C1453   1.285       .  A
C1453      C1897   1.473       .  S
O1454     Zr1457   2.378       .  S
O1454      C1456   1.276       .  A
O1455     Zr1484   2.499       .  S
O1455      C1456   1.299       .  A
C1456      C1888   1.492       .  S
Zr1457     O4098   2.434   1_455  S
Zr1457     O1459   2.436       .  S
Zr1457     O1463   2.346       .  S
Zr1457     O1464   2.369       .  S
Zr1457     O1487   2.365       .  S
Zr1457     O1489   2.359       .  S
O1458     Zr4097   2.434       .  S
O1458      H1501   0.990       .  S
O1459      H1500   0.990       .  S
O1459      H1504   0.990       .  S
Zr1460     O1461   2.438       .  S
Zr1460     O1462   2.434       .  S
Zr1460     O1464   2.381       .  S
Zr1460     O1463   2.351       .  S
Zr1460     O1488   2.366       .  S
Zr1460     O1490   2.368       .  S
O1461      H1502   0.990       .  S
O1461      H1505   0.990       .  S
O1462      H1495   0.990       .  S
O1463     Zr1483   2.369       .  S
O1464     Zr1484   2.402       .  S
O1464      H1491   0.966       .  S
O1465     Zr1477   2.392       .  S
O1465      C1467   1.278       .  A
O1466     Zr1484   2.499       .  S
O1466      C1467   1.301       .  A
C1467      C1741   1.480       .  S
O1468     Zr1480   2.454       .  S
O1468      C1470   1.290       .  A
O1469     Zr1483   2.423       .  S
O1469      C1470   1.287       .  A
C1470      C1753   1.470       .  S
O1471     Zr1480   2.442       .  S
O1471      C1473   1.289       .  A
O1472     Zr1484   2.454       .  S
O1472      C1473   1.292       .  A
C1473      C1789   1.483       .  S
O1474     Zr1477   2.458       .  S
O1474      C1476   1.291       .  A
O1475     Zr1483   2.411       .  S
O1475      C1476   1.283       .  A
Zr1477     O1478   2.436   1_565  S
Zr1477     O1479   2.436       .  S
Zr1477     O1485   2.382       .  S
Zr1477     O1486   2.345       .  S
Zr1477     O1489   2.355       .  S
Zr1477     O1487   2.387       .  S
O1478      H1498   0.990   1_545  S
O1479      H1499   0.990       .  S
Zr1480     O1481   2.434       .  S
Zr1480     O1482   2.434       .  S
Zr1480     O1486   2.365       .  S
Zr1480     O1485   2.377       .  S
Zr1480     O1490   2.368       .  S
Zr1480     O1488   2.381       .  S
O1481      H1497   0.990       .  S
O1482      H1496   0.990       .  S
O1482      H1506   0.990       .  S
Zr1483     O1486   2.377       .  S
Zr1483     O1488   2.390       .  S
Zr1483     O1489   2.375       .  S
Zr1484     O1485   2.415       .  S
Zr1484     O1487   2.397       .  S
Zr1484     O1490   2.401       .  S
O1485      H1493   0.966       .  S
O1488      H1492   0.966       .  S
O1489      H1494   0.966       .  S
O1507     Zr1519   2.408       .  S
O1507      C1509   1.281       .  A
O1508     Zr1545   2.493       .  S
O1508      C1509   1.299       .  A
C1509      C1720   1.485       .  S
O1510     Zr1522   2.422       .  S
O1510      C1512   1.283       .  A
O1511     Zr1546   2.451       .  S
O1511      C1512   1.293       .  A
C1512      C1732   1.474       .  S
O1513     Zr1522   2.411       .  S
O1513      C1515   1.283       .  A
O1514     Zr1545   2.428       .  S
O1514      C1515   1.288       .  A
C1515      C1945   1.459       .  S
O1516     Zr1519   2.428       .  S
O1516      C1518   1.288       .  A
O1517     Zr1546   2.404       .  S
O1517      C1518   1.282       .  A
C1518      C1861   1.464       .  S
Zr1519     O1520   2.434       .  S
Zr1519     O1521   2.435       .  S
Zr1519     O1525   2.370       .  S
Zr1519     O1526   2.348       .  S
Zr1519     O1549   2.356       .  S
Zr1519     O1551   2.371       .  S
O1520      H1563   0.990       .  S
O1521      H1562   0.990       .  S
O1521      H1566   0.990       .  S
Zr1522     O1523   2.437       .  S
Zr1522     O1524   2.435       .  S
Zr1522     O1526   2.355       .  S
Zr1522     O1525   2.378       .  S
Zr1522     O1550   2.358       .  S
Zr1522     O1552   2.385       .  S
O1523      H1564   0.990       .  S
O1523      H1567   0.990       .  S
O1524      H1557   0.990       .  S
O1525     Zr1545   2.388       .  S
O1526     Zr1546   2.386       .  S
O1526      H1553   0.964       .  S
O1527     Zr1539   2.404       .  S
O1527      C1529   1.279       .  A
O1528     Zr1546   2.409       .  S
O1528      C1529   1.282       .  A
O1530     Zr1542   2.413       .  S
O1530      C1532   1.283       .  A
O1531     Zr1545   2.440       .  S
O1531      C1532   1.290       .  A
C1532      C1876   1.485       .  S
O1533     Zr1542   2.457       .  S
O1533      C1535   1.290       .  A
O1534     Zr1546   2.456       .  S
O1534      C1535   1.294       .  A
C1535      C1744   1.497       .  S
O1536     Zr1539   2.412       .  S
O1536      C1538   1.276       .  A
O1537     Zr1545   2.460       .  S
O1537      C1538   1.289       .  A
C1538      C1756   1.492       .  S
Zr1539     O1541   2.435       .  S
Zr1539     O1547   2.355       .  S
Zr1539     O1548   2.354       .  S
Zr1539     O1551   2.361       .  S
Zr1539     O1549   2.364       .  S
O1540      H1560   0.990       .  S
O1540      H1565   0.990       .  S
O1541      H1561   0.990       .  S
Zr1542     O1543   2.433       .  S
Zr1542     O1544   2.434       .  S
Zr1542     O1548   2.374       .  S
Zr1542     O1547   2.361       .  S
Zr1542     O1552   2.368       .  S
Zr1542     O1550   2.374       .  S
O1543      H1559   0.990       .  S
O1544      H1558   0.990       .  S
O1544      H1568   0.990       .  S
Zr1545     O1548   2.395       .  S
Zr1545     O1550   2.411       .  S
Zr1545     O1551   2.392       .  S
Zr1546     O1547   2.385       .  S
Zr1546     O1549   2.392       .  S
Zr1546     O1552   2.384       .  S
O1547      H1555   0.964       .  S
O1550      H1554   0.966       .  S
O1551      H1556   0.966       .  S
O1569     Zr1581   2.481       .  S
O1569      C1571   1.295       .  A
O1570     Zr1607   2.443       .  S
O1570      C1571   1.293       .  A
C1571      C1825   1.501       .  S
O1572     Zr1584   2.381       .  S
O1572      C1574   1.275       .  A
O1573     Zr1608   2.470       .  S
O1573      C1574   1.293       .  A
C1574      C1816   1.466       .  S
O1575     Zr1584   2.382       .  S
O1575      C1577   1.278       .  A
O1576     Zr1607   2.454       .  S
O1576      C1577   1.291       .  A
C1577      C4336   1.475   1_455  S
O1578     Zr1581   2.487       .  S
O1578      C1580   1.298       .  A
O1579     Zr1608   2.425       .  S
O1579      C1580   1.286       .  A
C1580      C1780   1.495       .  S
Zr1581     O1582   2.433       .  S
Zr1581     O1583   2.434       .  S
Zr1581     O1587   2.369       .  S
Zr1581     O1588   2.383       .  S
Zr1581     O1611   2.374       .  S
Zr1581     O1613   2.395       .  S
O1582      H1625   0.990       .  S
O1583      H1624   0.990       .  S
O1583      H1628   0.990       .  S
Zr1584     O4225   2.436   1_455  S
Zr1584     O1586   2.435       .  S
Zr1584     O1588   2.359       .  S
Zr1584     O1587   2.346       .  S
Zr1584     O1612   2.361       .  S
Zr1584     O1614   2.361       .  S
O1585     Zr4224   2.436       .  S
O1585      H1626   0.990       .  S
O1585      H1629   0.990       .  S
O1586      H1619   0.990       .  S
O1587     Zr1607   2.381       .  S
O1588     Zr1608   2.389       .  S
O1588      H1615   0.966       .  S
O1589     Zr1601   2.498       .  S
O1589      C1591   1.299       .  A
O1590     Zr1608   2.411       .  S
O1590      C1591   1.284       .  A
C1591      C1705   1.486       .  S
O1592     Zr1604   2.399       .  S
O1592      C1594   1.280       .  A
O1593     Zr1607   2.464       .  S
O1593      C1594   1.293       .  A
C1594      C1768   1.479       .  S
O1595     Zr1604   2.381       .  S
O1595      C1597   1.276       .  A
O1596     Zr1608   2.458       .  S
O1596      C1597   1.291       .  A
C1597      C1729   1.459       .  S
O1598     Zr1601   2.496       .  S
O1598      C1600   1.298       .  A
O1599     Zr1607   2.434       .  S
O1599      C1600   1.291       .  A
C1600      C1717   1.502       .  S
Zr1601     O1602   2.437       .  S
Zr1601     O1603   2.434       .  S
Zr1601     O1609   2.384       .  S
Zr1601     O1610   2.369       .  S
Zr1601     O1613   2.396       .  S
Zr1601     O1611   2.381       .  S
O1602      H1622   0.990       .  S
O1602      H1627   0.990       .  S
O1603      H1623   0.990       .  S
Zr1604     O1605   2.434       .  S
Zr1604     O1606   2.435       .  S
Zr1604     O1610   2.345       .  S
Zr1604     O1609   2.363       .  S
Zr1604     O1614   2.367       .  S
Zr1604     O1612   2.360       .  S
O1605      H1621   0.990       .  S
O1606      H1620   0.990       .  S
O1606      H1630   0.990       .  S
Zr1607     O1610   2.381       .  S
Zr1607     O1612   2.375       .  S
Zr1607     O1613   2.418       .  S
Zr1608     O1609   2.400       .  S
Zr1608     O1611   2.406       .  S
Zr1608     O1614   2.372       .  S
O1609      H1617   0.966       .  S
O1612      H1616   0.966       .  S
O1613      H1618   0.966       .  S
O1631     Zr1643   2.457       .  S
O1631      C1633   1.290       .  A
O1632     Zr1669   2.433       .  S
O1632      C1633   1.288       .  A
C1633      C1852   1.479       .  S
O1634     Zr1646   2.405       .  S
O1634      C1636   1.281       .  A
O1635     Zr1670   2.492       .  S
O1635      C1636   1.300       .  A
C1636      C1708   1.483       .  S
O1637     Zr1646   2.449       .  S
O1637      C1639   1.289       .  A
O1638     Zr1669   2.400       .  S
O1638      C1639   1.282       .  A
C1639      C1972   1.479       .  S
O1640     Zr1643   2.433       .  S
O1640      C1642   1.288       .  A
O1641     Zr1670   2.466       .  S
O1641      C1642   1.295       .  A
C1642      C1792   1.482       .  S
Zr1643     O1644   2.434       .  S
Zr1643     O1645   2.435       .  S
Zr1643     O1649   2.377       .  S
Zr1643     O1650   2.370       .  S
Zr1643     O1673   2.370       .  S
Zr1643     O1675   2.363       .  S
O1644      H1687   0.990       .  S
O1645      H1686   0.990       .  S
O1645      H1690   0.990       .  S
Zr1646     O1647   2.435       .  S
Zr1646     O1648   2.434       .  S
Zr1646     O1650   2.370       .  S
Zr1646     O1649   2.371       .  S
Zr1646     O1674   2.353       .  S
Zr1646     O1676   2.378       .  S
O1647      H1688   0.990       .  S
O1647      H1691   0.990       .  S
O1648      H1681   0.990       .  S
O1649     Zr1669   2.374       .  S
O1650     Zr1670   2.411       .  S
O1650      H1677   0.965       .  S
O1651     Zr1663   2.413       .  S
O1651      C1653   1.275       .  A
O1652     Zr1670   2.523       .  S
O1652      C1653   1.299       .  A
C1653      C1840   1.514       .  S
O1654     Zr1666   2.443       .  S
O1654      C1656   1.287       .  A
O1655     Zr1669   2.407       .  S
O1655      C1656   1.282       .  A
C1656      C1804   1.459       .  S
O1657     Zr1666   2.419       .  S
O1657      C1659   1.281       .  A
O1658     Zr1670   2.503       .  S
O1658      C1659   1.302       .  A
C1659      C1957   1.511       .  S
O1660     Zr1663   2.463       .  S
O1660      C1662   1.292       .  A
O1661     Zr1669   2.382       .  S
O1661      C1662   1.278       .  A
Zr1663     O1664   2.439       .  S
Zr1663     O1665   2.434   1_565  S
Zr1663     O1671   2.394       .  S
Zr1663     O1672   2.357       .  S
Zr1663     O1675   2.352       .  S
Zr1663     O1673   2.384       .  S
O1664      H1684   0.990       .  S
O1664      H1689   0.990       .  S
O1665      H1685   0.990       .  S
Zr1666     O1667   2.436       .  S
Zr1666     O1668   2.439       .  S
Zr1666     O1672   2.364       .  S
Zr1666     O1671   2.374       .  S
Zr1666     O1676   2.372       .  S
Zr1666     O1674   2.363       .  S
O1667      H1683   0.990       .  S
O1668      H1682   0.990       .  S
O1668      H1692   0.990       .  S
Zr1669     O1672   2.379       .  S
Zr1669     O1674   2.380       .  S
Zr1669     O1675   2.371       .  S
Zr1670     O1671   2.421       .  S
Zr1670     O1673   2.409       .  S
Zr1670     O1676   2.402       .  S
O1671      H1679   0.966       .  S
O1674      H1678   0.965       .  S
O1675      H1680   0.965       .  S
C1693      C1694   1.408       .  A
C1693      C1698   1.402       .  A
C1694      C1695   1.403       .  A
C1695      C1696   1.404       .  A
C1695      O4340   1.368       .  S
C1696      C4217   1.475       .  S
C1696      C1697   1.407       .  A
C1697      C1698   1.390       .  A
C1697      H1701   1.084       .  S
C1698      O1702   1.372       .  S
O1700      C4335   1.368   1_455  S
O1700      H1704   0.992   1_455  S
O1702      H1703   0.992       .  S
C1705      C1706   1.401       .  A
C1705      C1710   1.412       .  A
C1706      C1707   1.405       .  A
C1706      H1711   1.084       .  S
C1707      C1708   1.413       .  A
C1707      O1712   1.372       .  S
C1708      C1709   1.405       .  A
C1709      C1710   1.409       .  A
C1709      H1713   1.084       .  S
C1710      O1714   1.371       .  S
O1712      H1716   0.992       .  S
O1714      H1715   0.992       .  S
C1717      C1718   1.410       .  A
C1717      C1722   1.413       .  A
C1718      C1719   1.418       .  A
C1718      H1723   1.083       .  S
C1719      C1720   1.413       .  A
C1719      O1724   1.371       .  S
C1720      C1721   1.400       .  A
C1721      C1722   1.400       .  A
C1721      H1725   1.085       .  S
C1722      O1726   1.368       .  S
O1724      H1728   0.992       .  S
O1726      H1727   0.992       .  S
C1729      C1730   1.400       .  A
C1729      C1734   1.408       .  A
C1730      C2391   1.398   1_554  A
C1730      H1735   1.084       .  S
C1731      C2390   1.398       .  A
C1731      C1732   1.409       .  A
C1731      O1736   1.370       .  S
C1732      C2393   1.404       .  A
C1733      C2392   1.404   1_554  A
C1733      C1734   1.400       .  A
C1733      H1737   1.084       .  S
C1734      O1738   1.372       .  S
O1736      H1740   0.992       .  S
O1738      H1739   0.992       .  S
C1741      C1742   1.406       .  A
C1741      C1746   1.410   1_554  A
C1742      H1747   1.084       .  S
C1743      C2404   1.413       .  A
C1743      O2408   1.371       .  S
C1744      C2403   1.413       .  A
C1745      C2406   1.405       .  A
C1745      H1749   1.084       .  S
C1746      C2405   1.405       .  A
C1746      O1750   1.372   1_556  S
O1748      C2403   1.371       .  S
O1748      H2412   0.992       .  S
O1750      H1751   0.992   1_554  S
H1752      O2408   0.992       .  S
C1753      C1754   1.394       .  A
C1754      H1759   1.084       .  S
C1755      C1756   1.421       .  A
C1756      C1757   1.407       .  A
C1757      C1758   1.406       .  A
C1757      H1761   1.083       .  S
C1758      O1762   1.371       .  S
O1760      H1764   0.991       .  S
O1762      H1763   0.992       .  S
C1765      C1766   1.403       .  A
C1765      C1770   1.403       .  A
C1766      C1767   1.403       .  A
C1767      C1768   1.406       .  A
C1767      O1772   1.368       .  S
C1768      C1769   1.408       .  A
C1769      C1770   1.398       .  A
C1769      H1773   1.084       .  S
C1770      O1774   1.371       .  S
O1772      H1776   0.992       .  S
O1774      H1775   0.992       .  S
C1777      C1778   1.410       .  A
C1777      C1782   1.409       .  A
C1778      C1779   1.401       .  A
C1778      H1783   1.084       .  S
C1779      C1780   1.407       .  A
C1779      O1784   1.372       .  S
C1780      C1781   1.413       .  A
C1781      C1782   1.413       .  A
C1781      H1785   1.082       .  S
C1782      O1786   1.371       .  S
O1784      H1788   0.992       .  S
O1786      H1787   0.991       .  S
C1789      C1790   1.408       .  A
C1789      C1794   1.408       .  A
C1790      C1791   1.414       .  A
C1790      H1795   1.083       .  S
C1791      C1792   1.410       .  A
C1791      O1796   1.371       .  S
C1792      C1793   1.403       .  A
C1793      C1794   1.396       .  A
C1793      H1797   1.084       .  S
C1794      O1798   1.372       .  S
O1796      H1800   0.992       .  S
O1798      H1799   0.991       .  S
C1801      C4087   1.461       .  S
C1801      C1802   1.404       .  A
C1801      C1806   1.406       .  A
C1802      C1803   1.399       .  A
C1802      H1807   1.084       .  S
C1803      C1804   1.404       .  A
C1803      O1808   1.372       .  S
C1804      C1805   1.397       .  A
C1805      C1806   1.399       .  A
C1805      H1809   1.084       .  S
C1806      O1810   1.373       .  S
O1808      H1812   0.992       .  S
O1810      H1811   0.992       .  S
C1813      C2474   1.408       .  A
C1813      C1818   1.412       .  A
C1814      C2473   1.408   1_554  A
C1814      C4455   1.406       .  A
C1814      H1819   1.083       .  S
C1815      C4454   1.406   1_455  A
C1815      C1816   1.408       .  A
C1815      O1820   1.371       .  S
C1816      C1817   1.400       .  A
C1817      C5118   1.398   1_554  A
C1817      H1821   1.085       .  S
C1818      C5117   1.398       .  A
C1818      O1822   1.370       .  S
O1820      H4464   0.992       .  S
O1822      H4463   0.992       .  S
H1823      O4462   0.992   1_655  S
H1824      O4460   0.992       .  S
C1825      C1826   1.412       .  A
C1825      C4470   1.412   1_455  A
C1826      C4467   1.416   1_455  A
C1826      H1831   1.083       .  S
C1827      C4466   1.416       .  A
C1827      C1828   1.411       .  A
C1827      O1832   1.371       .  S
C1828      C1829   1.400       .  A
C1829      C1830   1.401       .  A
C1829      H1833   1.085       .  S
C1830      C4465   1.412       .  A
C1830      O1834   1.370       .  S
O1832      H4476   0.992       .  S
O1834      H1835   0.991       .  S
H1836      O4472   0.992       .  S
C1837      C2502   1.405       .  A
C1838      C1839   1.425       .  A
C1838      H1843   1.083       .  S
C1839      C2500   1.413       .  A
C1839      O1844   1.370       .  S
C1840      C2499   1.413   1_554  A
C1840      C1841   1.411       .  A
C1841      H1845   1.076       .  S
C1842      C2497   1.405   1_554  A
C1842      O1846   1.373       .  S
O1844      H1848   0.992       .  S
O1846      H1847   0.992       .  S
C1849      C1854   1.410       .  A
C1850      C1851   1.402   1_545  A
C1850      H1855   1.084   1_545  S
C1851      C1852   1.404       .  A
C1851      O1856   1.372       .  S
C1853      C1854   1.406       .  A
C1853      H1857   1.084       .  S
C1854      O1858   1.371       .  S
O1856      H1860   0.992       .  S
O1858      H1859   0.992       .  S
C1861      C1862   1.399       .  A
C1861      C1866   1.408       .  A
C1862      C1863   1.386       .  A
C1862      H1867   1.084       .  S
C1863      C1864   1.407       .  A
C1863      O1868   1.373       .  S
C1864      C4028   1.467   1_455  S
C1864      C1865   1.403       .  A
C1865      C1866   1.403       .  A
C1865      H4509   1.082   1_455  S
C1866      O1870   1.374       .  S
O1868      H1872   0.992       .  S
H1869      C4505   1.082       .  S
O1870      H1871   0.991       .  S
C1873      C1874   1.394       .  A
C1873      C1878   1.408       .  A
C1874      C1875   1.385       .  A
C1874      H1879   1.083       .  S
C1875      C1876   1.418       .  A
C1875      O1880   1.373       .  S
C1876      C1877   1.409       .  A
C1877      C1878   1.407       .  A
C1877      H1881   1.083       .  S
C1878      O1882   1.371       .  S
O1880      H1884   0.992       .  S
O1882      H1883   0.992       .  S
C1885      C1886   1.395       .  A
C1885      C1890   1.415       .  A
C1886      C5187   1.392       .  A
C1886      H1891   1.084       .  S
C1887      C5186   1.392   1_554  A
C1887      C1888   1.417   1_655  A
C1887      O1892   1.373   1_655  S
C1888      C1889   1.407       .  A
C1889      C5190   1.416   1_454  A
C1889      H1893   1.083       .  S
C1890      C5189   1.416       .  A
C1890      O1894   1.371       .  S
O1892      H1896   0.992       .  S
O1894      H1895   0.992       .  S
C1897      C4538   1.401       .  A
C1897      C1902   1.408       .  A
C1898      C4537   1.401       .  A
C1898      C1899   1.392       .  A
C1898      H4543   1.084       .  S
C1899      C1900   1.414       .  A
C1899      O1904   1.372       .  S
C1900      C1901   1.408       .  A
C1901      C4542   1.402       .  A
C1901      H1905   1.083       .  S
C1902      C4541   1.402   1_455  A
C1902      O1906   1.372       .  S
H1903      C4538   1.084       .  S
O1904      H1908   0.992       .  S
O1906      H1907   0.992       .  S
C1909      C1910   1.399       .  A
C1909      C1914   1.399       .  A
C1910      C1911   1.393       .  A
C1910      H1915   1.084       .  S
C1911      C1912   1.402       .  A
C1912      C1913   1.401       .  A
C1913      C1914   1.378       .  A
C1913      H1917   1.085       .  S
C1914      O1918   1.373       .  S
O1918      H1919   0.992       .  S
C1921      C1922   1.401       .  A
C1921      C1926   1.414       .  A
C1922      C1923   1.397       .  A
C1922      H1927   1.084       .  S
C1923      C1924   1.407       .  A
C1923      O1928   1.372       .  S
C1924      C1925   1.391       .  A
C1925      C1926   1.389       .  A
C1925      H1929   1.085       .  S
C1926      O1930   1.372       .  S
O1928      H1932   0.992       .  S
O1930      H1931   0.992       .  S
C1933      C3986   1.469   1_455  S
C1933      C1934   1.406       .  A
C1933      C1938   1.410       .  A
C1934      C1935   1.394       .  A
C1934      H1939   1.083   1_455  S
C1935      C1936   1.401       .  A
C1936      C1937   1.398       .  A
C1937      C1938   1.391       .  A
C1937      H1941   1.085       .  S
C1938      O1942   1.371       .  S
O1940      H1944   0.992       .  S
O1942      H1943   0.992       .  S
C1945      C1946   1.401       .  A
C1945      C1950   1.407       .  A
C1946      C1947   1.391       .  A
C1946      H1951   1.084       .  S
C1947      C1948   1.404       .  A
C1947      O1952   1.372       .  S
C1948      C1949   1.402       .  A
C1949      C1950   1.400       .  A
C1949      H1953   1.084       .  S
C1950      O1954   1.372       .  S
O1952      H1956   0.992       .  S
O1954      H1955   0.992       .  S
C1957      C1958   1.421       .  A
C1957      C2622   1.408   1_554  A
C1958      C1959   1.411       .  A
C1958      H1963   1.083       .  S
C1959      C2620   1.402   1_554  A
C1959      O1964   1.371       .  S
C1960      C2619   1.402       .  A
C1960      C1961   1.417       .  A
C1961      C1962   1.409       .  A
C1961      H1965   1.084       .  S
C1962      C2617   1.408       .  A
C1962      O1966   1.371       .  S
O1964      H1968   0.992       .  S
O1966      H1967   0.992       .  S
C1969      C1970   1.404       .  A
C1969      C1974   1.415       .  A
C1970      C1971   1.391       .  A
C1970      H1975   1.083       .  S
C1971      C1972   1.412       .  A
C1971      O1976   1.372       .  S
C1972      C1973   1.404       .  A
C1973      C1974   1.402       .  A
C1973      H1977   1.083       .  S
C1974      O1978   1.371       .  S
O1976      H1980   0.992       .  S
O1978      H1979   0.992       .  S
O1981     Zr1993   2.441       .  S
O1981      C1983   1.287       .  A
O1982     Zr2019   2.407       .  S
O1982      C1983   1.285       .  A
C1983      C2629   1.485       .  S
O1984     Zr1996   2.375       .  S
O1984      C1986   1.275       .  A
O1985     Zr2020   2.528       .  S
O1985      C1986   1.306       .  A
C1986      C2620   1.496       .  S
O1987     Zr1996   2.376       .  S
O1987      C1989   1.275       .  A
O1988     Zr2019   2.398       .  S
O1988      C1989   1.280       .  A
C1989      C2569   1.426       .  S
O1990     Zr1993   2.417       .  S
O1990      C1992   1.284       .  A
O1991     Zr2020   2.425       .  S
O1991      C1992   1.288       .  A
C1992      C2608   1.456       .  S
Zr1993     O1994   2.434       .  S
Zr1993     O1995   2.436       .  S
Zr1993     O1999   2.359       .  S
Zr1993     O2000   2.370       .  S
Zr1993     O2023   2.360       .  S
Zr1993     O2025   2.366       .  S
O1994      H2037   0.990       .  S
O1995      H2036   0.990       .  S
O1995      H2040   0.990       .  S
Zr1996     O1997   2.437       .  S
Zr1996     O1998   2.435       .  S
Zr1996     O2000   2.359       .  S
Zr1996     O1999   2.361       .  S
Zr1996     O2024   2.350       .  S
Zr1996     O2026   2.370       .  S
O1997      H2038   0.990       .  S
O1997      H2041   0.990       .  S
O1998      H2031   0.990       .  S
O1999     Zr2019   2.371       .  S
O2000     Zr2020   2.391       .  S
O2000      H2027   0.965       .  S
O2001     Zr2013   2.401       .  S
O2001      C2003   1.282       .  A
O2002     Zr2020   2.442       .  S
O2002      C2003   1.293       .  A
C2003      C2581   1.465       .  S
O2004     Zr2016   2.420       .  S
O2004      C2006   1.278       .  A
O2005     Zr2019   2.391       .  S
O2005      C2006   1.278       .  A
C2006      C5233   1.469       .  S
O2007     Zr2016   2.403       .  S
O2007      C2009   1.271       .  A
O2008     Zr2020   2.495       .  S
O2008      C2009   1.298       .  A
C2009      C2545   1.474       .  S
O2010     Zr2013   2.448       .  S
O2010      C2012   1.289       .  A
O2011     Zr2019   2.398       .  S
O2011      C2012   1.282       .  A
C2012      C2560   1.483       .  S
Zr2013     O2014   2.435       .  S
Zr2013     O2015   2.434       .  S
Zr2013     O2021   2.371       .  S
Zr2013     O2022   2.349       .  S
Zr2013     O2025   2.355       .  S
Zr2013     O2023   2.368       .  S
O2014      H2034   0.990       .  S
O2014      H2039   0.990       .  S
O2015      H2035   0.990       .  S
Zr2016     O2017   2.434       .  S
Zr2016     O2018   2.438       .  S
Zr2016     O2022   2.368       .  S
Zr2016     O2021   2.375       .  S
Zr2016     O2026   2.384       .  S
Zr2016     O2024   2.358       .  S
O2017      H4673   0.990       .  S
O2018      H2032   0.989       .  S
O2018      H2042   0.990       .  S
Zr2019     O2022   2.378       .  S
Zr2019     O2024   2.391       .  S
Zr2019     O2025   2.373       .  S
Zr2020     O2021   2.407       .  S
Zr2020     O2023   2.408       .  S
Zr2020     O2026   2.381       .  S
O2021      H2029   0.964       .  S
O2024      H2028   0.966       .  S
O2025      H2030   0.966       .  S
H2033      O4657   0.990       .  S
O2043     Zr2055   2.408       .  S
O2043      C2045   1.281       .  A
O2044     Zr2081   2.422       .  S
O2044      C2045   1.287       .  A
C2045      C2584   1.446       .  S
O2046     Zr2058   2.416       .  S
O2046      C2048   1.284       .  A
O2047     Zr2082   2.414       .  S
O2047      C2048   1.284       .  A
C2048      C5164   1.467       .  S
O2049     Zr2058   2.403       .  S
O2049      C2051   1.280       .  A
O2050     Zr2081   2.489       .  S
O2050      C2051   1.298       .  A
C2051      C2488   1.482       .  S
O2052     Zr2055   2.443       .  S
O2052      C2054   1.288       .  A
O2053     Zr2082   2.452       .  S
O2053      C2054   1.293       .  A
C2054      C2473   1.487       .  S
Zr2055     O2056   2.434       .  S
Zr2055     O2057   2.434       .  S
Zr2055     O2061   2.392       .  S
Zr2055     O2062   2.354       .  S
Zr2055     O2085   2.380       .  S
Zr2055     O2087   2.368       .  S
O2056      H2099   0.990       .  S
O2057      H2098   0.990       .  S
O2057      H2102   0.990       .  S
Zr2058     O2059   2.435       .  S
Zr2058     O2060   2.434       .  S
Zr2058     O2062   2.341       .  S
Zr2058     O2061   2.366       .  S
Zr2058     O2086   2.364       .  S
Zr2058     O2088   2.360       .  S
O2059      H2100   0.990       .  S
O2059      H4743   0.990       .  S
O2060      H2093   0.990       .  S
O2061     Zr2081   2.388       .  S
O2062     Zr2082   2.380       .  S
O2062      H2089   0.963       .  S
O2063     Zr2075   2.491       .  S
O2063      C2065   1.294       .  A
O2064     Zr2082   2.447       .  S
O2064      C2065   1.292       .  A
C2065      C2497   1.506       .  S
O2066     Zr2078   2.410       .  S
O2066      C2068   1.276       .  A
O2067     Zr2081   2.466       .  S
O2067      C2068   1.290       .  A
C2068      C2509   1.484       .  S
O2069     Zr2078   2.368       .  S
O2069      C2071   1.275       .  A
O2070     Zr2082   2.408       .  S
O2070      C2071   1.282       .  A
O2072     Zr2075   2.450       .  S
O2072      C2074   1.287       .  A
O2073     Zr2081   2.412       .  S
O2073      C2074   1.282       .  A
C2074      C2533   1.469       .  S
Zr2075     O2076   2.439       .  S
Zr2075     O2077   2.435       .  S
Zr2075     O2083   2.366       .  S
Zr2075     O2084   2.379       .  S
Zr2075     O2087   2.377       .  S
Zr2075     O2085   2.382       .  S
O2076      H2096   0.990       .  S
O2076      H2101   0.990       .  S
O2077      H2097   0.990       .  S
Zr2078     O2080   2.436       .  S
Zr2078     O2084   2.339       .  S
Zr2078     O2083   2.368       .  S
Zr2078     O2088   2.363       .  S
Zr2078     O2086   2.353       .  S
O2080      H2094   0.990       .  S
O2080      H2104   0.990       .  S
Zr2081     O2084   2.399       .  S
Zr2081     O2086   2.378       .  S
Zr2081     O2087   2.427       .  S
Zr2082     O2083   2.395       .  S
Zr2082     O2085   2.384       .  S
Zr2082     O2088   2.390       .  S
O2083      H2091   0.965       .  S
O2086      H2090   0.966       .  S
O2087      H2092   0.966       .  S
H2103      O4699   0.990       .  S
O2105     Zr2117   2.408       .  S
O2105      C2107   1.281       .  A
O2106     Zr2143   2.438       .  S
O2106      C2107   1.287       .  A
C2107      C5101   1.461   1_455  S
O2108     Zr2120   2.402       .  S
O2108      C2110   1.281       .  A
O2109     Zr2144   2.495       .  S
O2109      C2110   1.300       .  A
C2110      C2437   1.492       .  S
O2111     Zr2120   2.438       .  S
O2111      C2113   1.287       .  A
O2112     Zr2143   2.409       .  S
O2112      C2113   1.285       .  A
C2113      C2557   1.473       .  S
O2114     Zr2117   2.378       .  S
O2114      C2116   1.276       .  A
O2115     Zr2144   2.499       .  S
O2115      C2116   1.299       .  A
C2116      C2548   1.492       .  S
Zr2117     O4758   2.434   1_455  S
Zr2117     O2119   2.436       .  S
Zr2117     O2123   2.346       .  S
Zr2117     O2124   2.369       .  S
Zr2117     O2147   2.365       .  S
Zr2117     O2149   2.359       .  S
O2118     Zr4757   2.434       .  S
O2118      H2161   0.990       .  S
O2119      H2160   0.990       .  S
O2119      H2164   0.990       .  S
Zr2120     O2121   2.438       .  S
Zr2120     O2122   2.434       .  S
Zr2120     O2124   2.381       .  S
Zr2120     O2123   2.351       .  S
Zr2120     O2148   2.366       .  S
Zr2120     O2150   2.368       .  S
O2121      H2162   0.990       .  S
O2121      H2165   0.990       .  S
O2122      H2155   0.990       .  S
O2123     Zr2143   2.369       .  S
O2124     Zr2144   2.402       .  S
O2124      H2151   0.966       .  S
O2125     Zr2137   2.392       .  S
O2125      C2127   1.278       .  A
O2126     Zr2144   2.499       .  S
O2126      C2127   1.301       .  A
C2127      C2401   1.480       .  S
O2128     Zr2140   2.454       .  S
O2128      C2130   1.290       .  A
O2129     Zr2143   2.423       .  S
O2129      C2130   1.287       .  A
C2130      C2413   1.470       .  S
O2131     Zr2140   2.442       .  S
O2131      C2133   1.289       .  A
O2132     Zr2144   2.454       .  S
O2132      C2133   1.292       .  A
C2133      C2449   1.483       .  S
O2134     Zr2137   2.458       .  S
O2134      C2136   1.291       .  A
O2135     Zr2143   2.411       .  S
O2135      C2136   1.283       .  A
Zr2137     O2138   2.436   1_565  S
Zr2137     O2139   2.436       .  S
Zr2137     O2145   2.382       .  S
Zr2137     O2146   2.345       .  S
Zr2137     O2149   2.355       .  S
Zr2137     O2147   2.387       .  S
O2138      H2158   0.990   1_545  S
O2139      H2159   0.990       .  S
Zr2140     O2141   2.434       .  S
Zr2140     O2142   2.434       .  S
Zr2140     O2146   2.365       .  S
Zr2140     O2145   2.377       .  S
Zr2140     O2150   2.368       .  S
Zr2140     O2148   2.381       .  S
O2141      H2157   0.990       .  S
O2142      H2156   0.990       .  S
O2142      H2166   0.990       .  S
Zr2143     O2146   2.377       .  S
Zr2143     O2148   2.390       .  S
Zr2143     O2149   2.375       .  S
Zr2144     O2145   2.415       .  S
Zr2144     O2147   2.397       .  S
Zr2144     O2150   2.401       .  S
O2145      H2153   0.966       .  S
O2148      H2152   0.966       .  S
O2149      H2154   0.966       .  S
O2167     Zr2179   2.408       .  S
O2167      C2169   1.281       .  A
O2168     Zr2205   2.493       .  S
O2168      C2169   1.299       .  A
C2169      C2380   1.485       .  S
O2170     Zr2182   2.422       .  S
O2170      C2172   1.283       .  A
O2171     Zr2206   2.451       .  S
O2171      C2172   1.293       .  A
C2172      C2392   1.474       .  S
O2173     Zr2182   2.411       .  S
O2173      C2175   1.283       .  A
O2174     Zr2205   2.428       .  S
O2174      C2175   1.288       .  A
C2175      C2605   1.459       .  S
O2176     Zr2179   2.428       .  S
O2176      C2178   1.288       .  A
O2177     Zr2206   2.404       .  S
O2177      C2178   1.282       .  A
C2178      C2521   1.464       .  S
Zr2179     O2180   2.434       .  S
Zr2179     O2181   2.435       .  S
Zr2179     O2185   2.370       .  S
Zr2179     O2186   2.348       .  S
Zr2179     O2209   2.356       .  S
Zr2179     O2211   2.371       .  S
O2180      H2223   0.990       .  S
O2181      H2222   0.990       .  S
O2181      H2226   0.990       .  S
Zr2182     O2183   2.437       .  S
Zr2182     O2184   2.435       .  S
Zr2182     O2186   2.355       .  S
Zr2182     O2185   2.378       .  S
Zr2182     O2210   2.358       .  S
Zr2182     O2212   2.385       .  S
O2183      H2224   0.990       .  S
O2183      H2227   0.990       .  S
O2184      H2217   0.990       .  S
O2185     Zr2205   2.388       .  S
O2186     Zr2206   2.386       .  S
O2186      H2213   0.964       .  S
O2187     Zr2199   2.404       .  S
O2187      C2189   1.279       .  A
O2188     Zr2206   2.409       .  S
O2188      C2189   1.282       .  A
O2190     Zr2202   2.413       .  S
O2190      C2192   1.283       .  A
O2191     Zr2205   2.440       .  S
O2191      C2192   1.290       .  A
C2192      C2536   1.485       .  S
O2193     Zr2202   2.457       .  S
O2193      C2195   1.290       .  A
O2194     Zr2206   2.456       .  S
O2194      C2195   1.294       .  A
C2195      C2404   1.497       .  S
O2196     Zr2199   2.412       .  S
O2196      C2198   1.276       .  A
O2197     Zr2205   2.460       .  S
O2197      C2198   1.289       .  A
C2198      C2416   1.492       .  S
Zr2199     O2201   2.435       .  S
Zr2199     O2207   2.355       .  S
Zr2199     O2208   2.354       .  S
Zr2199     O2211   2.361       .  S
Zr2199     O2209   2.364       .  S
O2200      H2220   0.990       .  S
O2200      H2225   0.990       .  S
O2201      H2221   0.990       .  S
Zr2202     O2203   2.433       .  S
Zr2202     O2204   2.434       .  S
Zr2202     O2208   2.374       .  S
Zr2202     O2207   2.361       .  S
Zr2202     O2212   2.368       .  S
Zr2202     O2210   2.374       .  S
O2203      H2219   0.990       .  S
O2204      H2218   0.990       .  S
O2204      H2228   0.990       .  S
Zr2205     O2208   2.395       .  S
Zr2205     O2210   2.411       .  S
Zr2205     O2211   2.392       .  S
Zr2206     O2207   2.385       .  S
Zr2206     O2209   2.392       .  S
Zr2206     O2212   2.384       .  S
O2207      H2215   0.964       .  S
O2210      H2214   0.966       .  S
O2211      H2216   0.966       .  S
O2229     Zr2241   2.481       .  S
O2229      C2231   1.295       .  A
O2230     Zr2267   2.443       .  S
O2230      C2231   1.293       .  A
C2231      C2485   1.501       .  S
O2232     Zr2244   2.381       .  S
O2232      C2234   1.275       .  A
O2233     Zr2268   2.470       .  S
O2233      C2234   1.293       .  A
C2234      C2476   1.466       .  S
O2235     Zr2244   2.382       .  S
O2235      C2237   1.278       .  A
O2236     Zr2267   2.454       .  S
O2236      C2237   1.291       .  A
C2237      C4996   1.475   1_455  S
O2238     Zr2241   2.487       .  S
O2238      C2240   1.298       .  A
O2239     Zr2268   2.425       .  S
O2239      C2240   1.286       .  A
C2240      C2440   1.495       .  S
Zr2241     O2242   2.433       .  S
Zr2241     O2243   2.434       .  S
Zr2241     O2247   2.369       .  S
Zr2241     O2248   2.383       .  S
Zr2241     O2271   2.374       .  S
Zr2241     O2273   2.395       .  S
O2242      H2285   0.990       .  S
O2243      H2284   0.990       .  S
O2243      H2288   0.990       .  S
Zr2244     O4885   2.436   1_455  S
Zr2244     O2246   2.435       .  S
Zr2244     O2248   2.359       .  S
Zr2244     O2247   2.346       .  S
Zr2244     O2272   2.361       .  S
Zr2244     O2274   2.361       .  S
O2245     Zr4884   2.436       .  S
O2245      H2286   0.990       .  S
O2245      H2289   0.990       .  S
O2246      H2279   0.990       .  S
O2247     Zr2267   2.381       .  S
O2248     Zr2268   2.389       .  S
O2248      H2275   0.966       .  S
O2249     Zr2261   2.498       .  S
O2249      C2251   1.299       .  A
O2250     Zr2268   2.411       .  S
O2250      C2251   1.284       .  A
C2251      C2365   1.486       .  S
O2252     Zr2264   2.399       .  S
O2252      C2254   1.280       .  A
O2253     Zr2267   2.464       .  S
O2253      C2254   1.293       .  A
C2254      C2428   1.479       .  S
O2255     Zr2264   2.381       .  S
O2255      C2257   1.276       .  A
O2256     Zr2268   2.458       .  S
O2256      C2257   1.291       .  A
C2257      C2389   1.459       .  S
O2258     Zr2261   2.496       .  S
O2258      C2260   1.298       .  A
O2259     Zr2267   2.434       .  S
O2259      C2260   1.291       .  A
C2260      C2377   1.502       .  S
Zr2261     O2262   2.437       .  S
Zr2261     O2263   2.434       .  S
Zr2261     O2269   2.384       .  S
Zr2261     O2270   2.369       .  S
Zr2261     O2273   2.396       .  S
Zr2261     O2271   2.381       .  S
O2262      H2282   0.990       .  S
O2262      H2287   0.990       .  S
O2263      H2283   0.990       .  S
Zr2264     O2265   2.434       .  S
Zr2264     O2266   2.435       .  S
Zr2264     O2270   2.345       .  S
Zr2264     O2269   2.363       .  S
Zr2264     O2274   2.367       .  S
Zr2264     O2272   2.360       .  S
O2265      H2281   0.990       .  S
O2266      H2280   0.990       .  S
O2266      H2290   0.990       .  S
Zr2267     O2270   2.381       .  S
Zr2267     O2272   2.375       .  S
Zr2267     O2273   2.418       .  S
Zr2268     O2269   2.400       .  S
Zr2268     O2271   2.406       .  S
Zr2268     O2274   2.372       .  S
O2269      H2277   0.966       .  S
O2272      H2276   0.966       .  S
O2273      H2278   0.966       .  S
O2291     Zr2303   2.457       .  S
O2291      C2293   1.290       .  A
O2292     Zr2329   2.433       .  S
O2292      C2293   1.288       .  A
C2293      C2512   1.479       .  S
O2294     Zr2306   2.405       .  S
O2294      C2296   1.281       .  A
O2295     Zr2330   2.492       .  S
O2295      C2296   1.300       .  A
C2296      C2368   1.483       .  S
O2297     Zr2306   2.449       .  S
O2297      C2299   1.289       .  A
O2298     Zr2329   2.400       .  S
O2298      C2299   1.282       .  A
C2299      C2632   1.479       .  S
O2300     Zr2303   2.433       .  S
O2300      C2302   1.288       .  A
O2301     Zr2330   2.466       .  S
O2301      C2302   1.295       .  A
C2302      C2452   1.482       .  S
Zr2303     O2304   2.434       .  S
Zr2303     O2305   2.435       .  S
Zr2303     O2309   2.377       .  S
Zr2303     O2310   2.370       .  S
Zr2303     O2333   2.370       .  S
Zr2303     O2335   2.363       .  S
O2304      H2347   0.990       .  S
O2305      H2346   0.990       .  S
O2305      H2350   0.990       .  S
Zr2306     O2307   2.435       .  S
Zr2306     O2308   2.434       .  S
Zr2306     O2310   2.370       .  S
Zr2306     O2309   2.371       .  S
Zr2306     O2334   2.353       .  S
Zr2306     O2336   2.378       .  S
O2307      H2348   0.990       .  S
O2307      H2351   0.990       .  S
O2308      H2341   0.990       .  S
O2309     Zr2329   2.374       .  S
O2310     Zr2330   2.411       .  S
O2310      H2337   0.965       .  S
O2311     Zr2323   2.413       .  S
O2311      C2313   1.275       .  A
O2312     Zr2330   2.523       .  S
O2312      C2313   1.299       .  A
C2313      C2500   1.514       .  S
O2314     Zr2326   2.443       .  S
O2314      C2316   1.287       .  A
O2315     Zr2329   2.407       .  S
O2315      C2316   1.282       .  A
C2316      C2464   1.459       .  S
O2317     Zr2326   2.419       .  S
O2317      C2319   1.281       .  A
O2318     Zr2330   2.503       .  S
O2318      C2319   1.302       .  A
C2319      C2617   1.511       .  S
O2320     Zr2323   2.463       .  S
O2320      C2322   1.292       .  A
O2321     Zr2329   2.382       .  S
O2321      C2322   1.278       .  A
Zr2323     O2324   2.439       .  S
Zr2323     O2325   2.434   1_565  S
Zr2323     O2331   2.394       .  S
Zr2323     O2332   2.357       .  S
Zr2323     O2335   2.352       .  S
Zr2323     O2333   2.384       .  S
O2324      H2344   0.990       .  S
O2324      H2349   0.990       .  S
O2325      H2345   0.990       .  S
Zr2326     O2327   2.436       .  S
Zr2326     O2328   2.439       .  S
Zr2326     O2332   2.364       .  S
Zr2326     O2331   2.374       .  S
Zr2326     O2336   2.372       .  S
Zr2326     O2334   2.363       .  S
O2327      H2343   0.990       .  S
O2328      H2342   0.990       .  S
O2328      H2352   0.990       .  S
Zr2329     O2332   2.379       .  S
Zr2329     O2334   2.380       .  S
Zr2329     O2335   2.371       .  S
Zr2330     O2331   2.421       .  S
Zr2330     O2333   2.409       .  S
Zr2330     O2336   2.402       .  S
O2331      H2339   0.966       .  S
O2334      H2338   0.965       .  S
O2335      H2340   0.965       .  S
C2353      C2354   1.408       .  A
C2353      C2358   1.402       .  A
C2354      C2355   1.403       .  A
C2355      C2356   1.404       .  A
C2355      O5000   1.368       .  S
C2356      C4877   1.475       .  S
C2356      C2357   1.407       .  A
C2357      C2358   1.390       .  A
C2357      H2361   1.084       .  S
C2358      O2362   1.372       .  S
O2360      C4995   1.368   1_455  S
O2360      H2364   0.992   1_455  S
O2362      H2363   0.992       .  S
C2365      C2366   1.401       .  A
C2365      C2370   1.412       .  A
C2366      C2367   1.405       .  A
C2366      H2371   1.084       .  S
C2367      C2368   1.413       .  A
C2367      O2372   1.372       .  S
C2368      C2369   1.405       .  A
C2369      C2370   1.409       .  A
C2369      H2373   1.084       .  S
C2370      O2374   1.371       .  S
O2372      H2376   0.992       .  S
O2374      H2375   0.992       .  S
C2377      C2378   1.410       .  A
C2377      C2382   1.413       .  A
C2378      C2379   1.418       .  A
C2378      H2383   1.083       .  S
C2379      C2380   1.413       .  A
C2379      O2384   1.371       .  S
C2380      C2381   1.400       .  A
C2381      C2382   1.400       .  A
C2381      H2385   1.085       .  S
C2382      O2386   1.368       .  S
O2384      H2388   0.992       .  S
O2386      H2387   0.992       .  S
C2389      C2390   1.400       .  A
C2389      C2394   1.408       .  A
C2390      H2395   1.084       .  S
C2391      C2392   1.409       .  A
C2391      O2396   1.370       .  S
C2393      C2394   1.400       .  A
C2393      H2397   1.084       .  S
C2394      O2398   1.372       .  S
O2396      H2400   0.992       .  S
O2398      H2399   0.992       .  S
C2401      C2402   1.406       .  A
C2401      C2406   1.410       .  A
C2402      H2407   1.084       .  S
C2405      H2409   1.084       .  S
C2406      O2410   1.372       .  S
O2410      H2411   0.992       .  S
C2413      C2414   1.394       .  A
C2414      H2419   1.084       .  S
C2415      C2416   1.421       .  A
C2416      C2417   1.407       .  A
C2417      C2418   1.406       .  A
C2417      H2421   1.083       .  S
C2418      O2422   1.371       .  S
O2420      H2424   0.991       .  S
O2422      H2423   0.992       .  S
C2425      C2426   1.403       .  A
C2425      C2430   1.403       .  A
C2426      C2427   1.403       .  A
C2427      C2428   1.406       .  A
C2427      O2432   1.368       .  S
C2428      C2429   1.408       .  A
C2429      C2430   1.398       .  A
C2429      H2433   1.084       .  S
C2430      O2434   1.371       .  S
O2432      H2436   0.992       .  S
O2434      H2435   0.992       .  S
C2437      C2438   1.410       .  A
C2437      C2442   1.409       .  A
C2438      C2439   1.401       .  A
C2438      H2443   1.084       .  S
C2439      C2440   1.407       .  A
C2439      O2444   1.372       .  S
C2440      C2441   1.413       .  A
C2441      C2442   1.413       .  A
C2441      H2445   1.082       .  S
C2442      O2446   1.371       .  S
O2444      H2448   0.992       .  S
O2446      H2447   0.991       .  S
C2449      C2450   1.408       .  A
C2449      C2454   1.408       .  A
C2450      C2451   1.414       .  A
C2450      H2455   1.083       .  S
C2451      C2452   1.410       .  A
C2451      O2456   1.371       .  S
C2452      C2453   1.403       .  A
C2453      C2454   1.396       .  A
C2453      H2457   1.084       .  S
C2454      O2458   1.372       .  S
O2456      H2460   0.992       .  S
O2458      H2459   0.991       .  S
C2461      C4747   1.461       .  S
C2461      C2462   1.404       .  A
C2461      C2466   1.406       .  A
C2462      C2463   1.399       .  A
C2462      H2467   1.084       .  S
C2463      C2464   1.404       .  A
C2463      O2468   1.372       .  S
C2464      C2465   1.397       .  A
C2465      C2466   1.399       .  A
C2465      H2469   1.084       .  S
C2466      O2470   1.373       .  S
O2468      H2472   0.992       .  S
O2470      H2471   0.992       .  S
C2473      C2478   1.412       .  A
C2474      C5115   1.406       .  A
C2474      H2479   1.083       .  S
C2475      C5114   1.406   1_455  A
C2475      C2476   1.408       .  A
C2475      O2480   1.371       .  S
C2476      C2477   1.400       .  A
C2477      C4458   1.398       .  A
C2477      H2481   1.085       .  S
C2478      C4457   1.398   1_556  A
C2478      O2482   1.370       .  S
O2480      H5124   0.992       .  S
O2482      H5123   0.992       .  S
H2483      O5122   0.992   1_655  S
H2484      O5120   0.992       .  S
C2485      C2486   1.412       .  A
C2485      C5130   1.412   1_455  A
C2486      C5127   1.416   1_455  A
C2486      H2491   1.083       .  S
C2487      C5126   1.416       .  A
C2487      C2488   1.411       .  A
C2487      O2492   1.371       .  S
C2488      C2489   1.400       .  A
C2489      C2490   1.401       .  A
C2489      H2493   1.085       .  S
C2490      C5125   1.412       .  A
C2490      O2494   1.370       .  S
O2492      H5136   0.992       .  S
O2494      H2495   0.991       .  S
H2496      O5132   0.992       .  S
C2498      C2499   1.425       .  A
C2498      H2503   1.083       .  S
C2499      O2504   1.370       .  S
C2500      C2501   1.411       .  A
C2501      H2505   1.076       .  S
C2502      O2506   1.373       .  S
O2504      H2508   0.992       .  S
O2506      H2507   0.992       .  S
C2509      C2514   1.410       .  A
C2510      C2511   1.402   1_545  A
C2510      H2515   1.084   1_545  S
C2511      C2512   1.404       .  A
C2511      O2516   1.372       .  S
C2513      C2514   1.406       .  A
C2513      H2517   1.084       .  S
C2514      O2518   1.371       .  S
O2516      H2520   0.992       .  S
O2518      H2519   0.992       .  S
C2521      C2522   1.399       .  A
C2521      C2526   1.408       .  A
C2522      C2523   1.386       .  A
C2522      H2527   1.084       .  S
C2523      C2524   1.407       .  A
C2523      O2528   1.373       .  S
C2524      C4688   1.467   1_455  S
C2524      C2525   1.403       .  A
C2525      C2526   1.403       .  A
C2525      H5169   1.082   1_455  S
C2526      O2530   1.374       .  S
O2528      H2532   0.992       .  S
H2529      C5165   1.082       .  S
O2530      H2531   0.991       .  S
C2533      C2534   1.394       .  A
C2533      C2538   1.408       .  A
C2534      C2535   1.385       .  A
C2534      H2539   1.083       .  S
C2535      C2536   1.418       .  A
C2535      O2540   1.373       .  S
C2536      C2537   1.409       .  A
C2537      C2538   1.407       .  A
C2537      H2541   1.083       .  S
C2538      O2542   1.371       .  S
O2540      H2544   0.992       .  S
O2542      H2543   0.992       .  S
C2545      C2546   1.395       .  A
C2545      C2550   1.415       .  A
C2546      C4527   1.392   1_556  A
C2546      H2551   1.084       .  S
C2547      C4526   1.392       .  A
C2547      C2548   1.417   1_655  A
C2547      O2552   1.373   1_655  S
C2548      C2549   1.407       .  A
C2549      C4530   1.416   1_455  A
C2549      H2553   1.083       .  S
C2550      C4529   1.416   1_556  A
C2550      O2554   1.371       .  S
O2552      H2556   0.992       .  S
O2554      H2555   0.992       .  S
C2557      C5198   1.401       .  A
C2557      C2562   1.408       .  A
C2558      C5197   1.401       .  A
C2558      C2559   1.392       .  A
C2558      H5203   1.084       .  S
C2559      C2560   1.414       .  A
C2559      O2564   1.372       .  S
C2560      C2561   1.408       .  A
C2561      C5202   1.402       .  A
C2561      H2565   1.083       .  S
C2562      C5201   1.402   1_455  A
C2562      O2566   1.372       .  S
H2563      C5198   1.084       .  S
O2564      H2568   0.992       .  S
O2566      H2567   0.992       .  S
C2569      C2570   1.399       .  A
C2569      C2574   1.399       .  A
C2570      C2571   1.393       .  A
C2570      H2575   1.084       .  S
C2571      C2572   1.402       .  A
C2572      C2573   1.401       .  A
C2573      C2574   1.378       .  A
C2573      H2577   1.085       .  S
C2574      O2578   1.373       .  S
O2578      H2579   0.992       .  S
C2581      C2582   1.401       .  A
C2581      C2586   1.414       .  A
C2582      C2583   1.397       .  A
C2582      H2587   1.084       .  S
C2583      C2584   1.407       .  A
C2583      O2588   1.372       .  S
C2584      C2585   1.391       .  A
C2585      C2586   1.389       .  A
C2585      H2589   1.085       .  S
C2586      O2590   1.372       .  S
O2588      H2592   0.992       .  S
O2590      H2591   0.992       .  S
C2593      C4646   1.469   1_455  S
C2593      C2594   1.406       .  A
C2593      C2598   1.410       .  A
C2594      C2595   1.394       .  A
C2594      H2599   1.083   1_455  S
C2595      C2596   1.401       .  A
C2596      C2597   1.398       .  A
C2597      C2598   1.391       .  A
C2597      H2601   1.085       .  S
C2598      O2602   1.371       .  S
O2600      H2604   0.992       .  S
O2602      H2603   0.992       .  S
C2605      C2606   1.401       .  A
C2605      C2610   1.407       .  A
C2606      C2607   1.391       .  A
C2606      H2611   1.084       .  S
C2607      C2608   1.404       .  A
C2607      O2612   1.372       .  S
C2608      C2609   1.402       .  A
C2609      C2610   1.400       .  A
C2609      H2613   1.084       .  S
C2610      O2614   1.372       .  S
O2612      H2616   0.992       .  S
O2614      H2615   0.992       .  S
C2617      C2618   1.421       .  A
C2618      C2619   1.411       .  A
C2618      H2623   1.083       .  S
C2619      O2624   1.371       .  S
C2620      C2621   1.417       .  A
C2621      C2622   1.409       .  A
C2621      H2625   1.084       .  S
C2622      O2626   1.371       .  S
O2624      H2628   0.992       .  S
O2626      H2627   0.992       .  S
C2629      C2630   1.404       .  A
C2629      C2634   1.415       .  A
C2630      C2631   1.391       .  A
C2630      H2635   1.083       .  S
C2631      C2632   1.412       .  A
C2631      O2636   1.372       .  S
C2632      C2633   1.404       .  A
C2633      C2634   1.402       .  A
C2633      H2637   1.083       .  S
C2634      O2638   1.371       .  S
O2636      H2640   0.992       .  S
O2638      H2639   0.992       .  S
O2641     Zr2653   2.441       .  S
O2641      C2643   1.287       .  A
O2642     Zr2679   2.407       .  S
O2642      C2643   1.285       .  A
C2643      C3289   1.485       .  S
O2644     Zr2656   2.375       .  S
O2644      C2646   1.275       .  A
O2645     Zr2680   2.528       .  S
O2645      C2646   1.306       .  A
C2646      C3280   1.496       .  S
O2647     Zr2656   2.376       .  S
O2647      C2649   1.275       .  A
O2648     Zr2679   2.398       .  S
O2648      C2649   1.280       .  A
C2649      C3229   1.426       .  S
O2650     Zr2653   2.417       .  S
O2650      C2652   1.284       .  A
O2651     Zr2680   2.425       .  S
O2651      C2652   1.288       .  A
C2652      C3268   1.456       .  S
Zr2653     O2654   2.434       .  S
Zr2653     O2655   2.436       .  S
Zr2653     O2659   2.359       .  S
Zr2653     O2660   2.370       .  S
Zr2653     O2683   2.360       .  S
Zr2653     O2685   2.366       .  S
O2654      H2697   0.990       .  S
O2655      H2696   0.990       .  S
O2655      H2700   0.990       .  S
Zr2656     O2657   2.437       .  S
Zr2656     O2658   2.435       .  S
Zr2656     O2660   2.359       .  S
Zr2656     O2659   2.361       .  S
Zr2656     O2684   2.350       .  S
Zr2656     O2686   2.370       .  S
O2657      H2698   0.990       .  S
O2657      H2701   0.990       .  S
O2658      H2691   0.990       .  S
O2659     Zr2679   2.371       .  S
O2660     Zr2680   2.391       .  S
O2660      H2687   0.965       .  S
O2661     Zr2673   2.401       .  S
O2661      C2663   1.282       .  A
O2662     Zr2680   2.442       .  S
O2662      C2663   1.293       .  A
C2663      C3241   1.465       .  S
O2664     Zr2676   2.420       .  S
O2664      C2666   1.278       .  A
O2665     Zr2679   2.391       .  S
O2665      C2666   1.278       .  A
O2667     Zr2676   2.403       .  S
O2667      C2669   1.271       .  A
O2668     Zr2680   2.495       .  S
O2668      C2669   1.298       .  A
C2669      C3205   1.474       .  S
O2670     Zr2673   2.448       .  S
O2670      C2672   1.289       .  A
O2671     Zr2679   2.398       .  S
O2671      C2672   1.282       .  A
C2672      C3220   1.483       .  S
Zr2673     O2674   2.435       .  S
Zr2673     O2675   2.434       .  S
Zr2673     O2681   2.371       .  S
Zr2673     O2682   2.349       .  S
Zr2673     O2685   2.355       .  S
Zr2673     O2683   2.368       .  S
O2674      H2694   0.990       .  S
O2674      H2699   0.990       .  S
O2675      H2695   0.990       .  S
Zr2676     O2677   2.434   1_655  S
Zr2676     O2678   2.438       .  S
Zr2676     O2682   2.368       .  S
Zr2676     O2681   2.375       .  S
Zr2676     O2686   2.384       .  S
Zr2676     O2684   2.358       .  S
O2678      H2692   0.989       .  S
O2678      H2702   0.990       .  S
Zr2679     O2682   2.378       .  S
Zr2679     O2684   2.391       .  S
Zr2679     O2685   2.373       .  S
Zr2680     O2681   2.407       .  S
Zr2680     O2683   2.408       .  S
Zr2680     O2686   2.381       .  S
O2681      H2689   0.964       .  S
O2684      H2688   0.966       .  S
O2685      H2690   0.966       .  S
O2703     Zr2715   2.408       .  S
O2703      C2705   1.281       .  A
O2704     Zr2741   2.422       .  S
O2704      C2705   1.287       .  A
C2705      C3244   1.446       .  S
O2706     Zr2718   2.416       .  S
O2706      C2708   1.284       .  A
O2707     Zr2742   2.414       .  S
O2707      C2708   1.284       .  A
O2709     Zr2718   2.403       .  S
O2709      C2711   1.280       .  A
O2710     Zr2741   2.489       .  S
O2710      C2711   1.298       .  A
C2711      C3148   1.482       .  S
O2712     Zr2715   2.443       .  S
O2712      C2714   1.288       .  A
O2713     Zr2742   2.452       .  S
O2713      C2714   1.293       .  A
C2714      C3133   1.487       .  S
Zr2715     O2716   2.434       .  S
Zr2715     O2717   2.434       .  S
Zr2715     O2721   2.392       .  S
Zr2715     O2722   2.354       .  S
Zr2715     O2745   2.380       .  S
Zr2715     O2747   2.368       .  S
O2716      H2759   0.990       .  S
O2717      H2758   0.990       .  S
O2717      H2762   0.990       .  S
Zr2718     O2719   2.435   1_655  S
Zr2718     O2720   2.434       .  S
Zr2718     O2722   2.341       .  S
Zr2718     O2721   2.366       .  S
Zr2718     O2746   2.364       .  S
Zr2718     O2748   2.360       .  S
O2719      H2760   0.990       .  S
O2720      H2753   0.990       .  S
O2721     Zr2741   2.388       .  S
O2722     Zr2742   2.380       .  S
O2722      H2749   0.963       .  S
O2723     Zr2735   2.491       .  S
O2723      C2725   1.294       .  A
O2724     Zr2742   2.447       .  S
O2724      C2725   1.292       .  A
C2725      C3157   1.506       .  S
O2726     Zr2738   2.410       .  S
O2726      C2728   1.276       .  A
O2727     Zr2741   2.466       .  S
O2727      C2728   1.290       .  A
C2728      C3169   1.484       .  S
O2729     Zr2738   2.368       .  S
O2729      C2731   1.275       .  A
O2730     Zr2742   2.408       .  S
O2730      C2731   1.282       .  A
C2731      C4552   1.438   1_545  S
O2732     Zr2735   2.450       .  S
O2732      C2734   1.287       .  A
O2733     Zr2741   2.412       .  S
O2733      C2734   1.282       .  A
C2734      C3193   1.469       .  S
Zr2735     O2736   2.439       .  S
Zr2735     O2737   2.435       .  S
Zr2735     O2743   2.366       .  S
Zr2735     O2744   2.379       .  S
Zr2735     O2747   2.377       .  S
Zr2735     O2745   2.382       .  S
O2736      H2756   0.990       .  S
O2736      H2761   0.990       .  S
O2737      H2757   0.990       .  S
Zr2738     O4059   2.434   1_545  S
Zr2738     O2740   2.436       .  S
Zr2738     O2744   2.339       .  S
Zr2738     O2743   2.368       .  S
Zr2738     O2748   2.363       .  S
Zr2738     O2746   2.353       .  S
O2739     Zr4058   2.434       .  S
O2739      H4075   0.990       .  S
O2740      H2754   0.990       .  S
O2740      H2764   0.990       .  S
Zr2741     O2744   2.399       .  S
Zr2741     O2746   2.378       .  S
Zr2741     O2747   2.427       .  S
Zr2742     O2743   2.395       .  S
Zr2742     O2745   2.384       .  S
Zr2742     O2748   2.390       .  S
O2743      H2751   0.965       .  S
O2746      H2750   0.966       .  S
O2747      H2752   0.966       .  S
H2755      O4059   0.990       .  S
O2765     Zr2777   2.408       .  S
O2765      C2767   1.281       .  A
O2766     Zr2803   2.438       .  S
O2766      C2767   1.287       .  A
O2768     Zr2780   2.402       .  S
O2768      C2770   1.281       .  A
O2769     Zr2804   2.495       .  S
O2769      C2770   1.300       .  A
C2770      C3097   1.492       .  S
O2771     Zr2780   2.438       .  S
O2771      C2773   1.287       .  A
O2772     Zr2803   2.409       .  S
O2772      C2773   1.285       .  A
C2773      C3217   1.473       .  S
O2774     Zr2777   2.378       .  S
O2774      C2776   1.276       .  A
O2775     Zr2804   2.499       .  S
O2775      C2776   1.299       .  A
C2776      C3208   1.492       .  S
Zr2777     O2779   2.436       .  S
Zr2777     O2783   2.346       .  S
Zr2777     O2784   2.369       .  S
Zr2777     O2807   2.365       .  S
Zr2777     O2809   2.359       .  S
O2778      H2821   0.990       .  S
O2779      H2820   0.990       .  S
O2779      H2824   0.990       .  S
Zr2780     O2781   2.438       .  S
Zr2780     O2782   2.434       .  S
Zr2780     O2784   2.381       .  S
Zr2780     O2783   2.351       .  S
Zr2780     O2808   2.366       .  S
Zr2780     O2810   2.368       .  S
O2781      H2822   0.990       .  S
O2781      H2825   0.990       .  S
O2782      H2815   0.990       .  S
O2783     Zr2803   2.369       .  S
O2784     Zr2804   2.402       .  S
O2784      H2811   0.966       .  S
O2785     Zr2797   2.392       .  S
O2785      C2787   1.278       .  A
O2786     Zr2804   2.499       .  S
O2786      C2787   1.301       .  A
C2787      C3061   1.480       .  S
O2788     Zr2800   2.454       .  S
O2788      C2790   1.290       .  A
O2789     Zr2803   2.423       .  S
O2789      C2790   1.287       .  A
C2790      C3073   1.470       .  S
O2791     Zr2800   2.442       .  S
O2791      C2793   1.289       .  A
O2792     Zr2804   2.454       .  S
O2792      C2793   1.292       .  A
C2793      C3109   1.483       .  S
O2794     Zr2797   2.458       .  S
O2794      C2796   1.291       .  A
O2795     Zr2803   2.411       .  S
O2795      C2796   1.283       .  A
C2796      C4405   1.475       .  S
Zr2797     O2798   2.436       .  S
Zr2797     O2799   2.436       .  S
Zr2797     O2805   2.382       .  S
Zr2797     O2806   2.345       .  S
Zr2797     O2809   2.355       .  S
Zr2797     O2807   2.387       .  S
O2798      H2818   0.990       .  S
O2798      H4143   0.990       .  S
O2799      H2819   0.990       .  S
Zr2800     O2801   2.434       .  S
Zr2800     O2802   2.434       .  S
Zr2800     O2806   2.365       .  S
Zr2800     O2805   2.377       .  S
Zr2800     O2810   2.368       .  S
Zr2800     O2808   2.381       .  S
O2801      H2817   0.990       .  S
O2802      H2816   0.990       .  S
O2802      H2826   0.990       .  S
Zr2803     O2806   2.377       .  S
Zr2803     O2808   2.390       .  S
Zr2803     O2809   2.375       .  S
Zr2804     O2805   2.415       .  S
Zr2804     O2807   2.397       .  S
Zr2804     O2810   2.401       .  S
O2805      H2813   0.966       .  S
O2808      H2812   0.966       .  S
O2809      H2814   0.966       .  S
H2823      O4118   0.990       .  S
O2827     Zr2839   2.408       .  S
O2827      C2829   1.281       .  A
O2828     Zr2865   2.493       .  S
O2828      C2829   1.299       .  A
C2829      C3040   1.485       .  S
O2830     Zr2842   2.422       .  S
O2830      C2832   1.283       .  A
O2831     Zr2866   2.451       .  S
O2831      C2832   1.293       .  A
C2832      C3052   1.474       .  S
O2833     Zr2842   2.411       .  S
O2833      C2835   1.283       .  A
O2834     Zr2865   2.428       .  S
O2834      C2835   1.288       .  A
C2835      C3265   1.459       .  S
O2836     Zr2839   2.428       .  S
O2836      C2838   1.288       .  A
O2837     Zr2866   2.404       .  S
O2837      C2838   1.282       .  A
C2838      C3181   1.464       .  S
Zr2839     O2840   2.434       .  S
Zr2839     O2841   2.435       .  S
Zr2839     O2845   2.370       .  S
Zr2839     O2846   2.348       .  S
Zr2839     O2869   2.356       .  S
Zr2839     O2871   2.371       .  S
O2840      H2883   0.990       .  S
O2841      H2882   0.990       .  S
O2841      H2886   0.990       .  S
Zr2842     O2843   2.437       .  S
Zr2842     O2844   2.435       .  S
Zr2842     O2846   2.355       .  S
Zr2842     O2845   2.378       .  S
Zr2842     O2870   2.358       .  S
Zr2842     O2872   2.385       .  S
O2843      H2884   0.990       .  S
O2843      H2887   0.990       .  S
O2844      H2877   0.990       .  S
O2845     Zr2865   2.388       .  S
O2846     Zr2866   2.386       .  S
O2846      H2873   0.964       .  S
O2847     Zr2859   2.404       .  S
O2847      C2849   1.279       .  A
O2848     Zr2866   2.409       .  S
O2848      C2849   1.282       .  A
C2849      C4576   1.443   1_545  S
O2850     Zr2862   2.413       .  S
O2850      C2852   1.283       .  A
O2851     Zr2865   2.440       .  S
O2851      C2852   1.290       .  A
C2852      C3196   1.485       .  S
O2853     Zr2862   2.457       .  S
O2853      C2855   1.290       .  A
O2854     Zr2866   2.456       .  S
O2854      C2855   1.294       .  A
C2855      C3064   1.497       .  S
O2856     Zr2859   2.412       .  S
O2856      C2858   1.276       .  A
O2857     Zr2865   2.460       .  S
O2857      C2858   1.289       .  A
C2858      C3076   1.492       .  S
Zr2859     O4180   2.439   1_545  S
Zr2859     O2861   2.435       .  S
Zr2859     O2867   2.355       .  S
Zr2859     O2868   2.354       .  S
Zr2859     O2871   2.361       .  S
Zr2859     O2869   2.364       .  S
O2860     Zr4179   2.439       .  S
O2860      H2880   0.990       .  S
O2860      H2885   0.990       .  S
O2861      H2881   0.990       .  S
Zr2862     O2863   2.433       .  S
Zr2862     O2864   2.434       .  S
Zr2862     O2868   2.374       .  S
Zr2862     O2867   2.361       .  S
Zr2862     O2872   2.368       .  S
Zr2862     O2870   2.374       .  S
O2863      H2879   0.990       .  S
O2864      H2878   0.990       .  S
O2864      H2888   0.990       .  S
Zr2865     O2868   2.395       .  S
Zr2865     O2870   2.411       .  S
Zr2865     O2871   2.392       .  S
Zr2866     O2867   2.385       .  S
Zr2866     O2869   2.392       .  S
Zr2866     O2872   2.384       .  S
O2867      H2875   0.964       .  S
O2870      H2874   0.966       .  S
O2871      H2876   0.966       .  S
O2889     Zr2901   2.481       .  S
O2889      C2891   1.295       .  A
O2890     Zr2927   2.443       .  S
O2890      C2891   1.293       .  A
C2891      C3145   1.501       .  S
O2892     Zr2904   2.381       .  S
O2892      C2894   1.275       .  A
O2893     Zr2928   2.470       .  S
O2893      C2894   1.293       .  A
C2894      C3136   1.466       .  S
O2895     Zr2904   2.382       .  S
O2895      C2897   1.278       .  A
O2896     Zr2927   2.454       .  S
O2896      C2897   1.291       .  A
O2898     Zr2901   2.487       .  S
O2898      C2900   1.298       .  A
O2899     Zr2928   2.425       .  S
O2899      C2900   1.286       .  A
C2900      C3100   1.495       .  S
Zr2901     O2902   2.433       .  S
Zr2901     O2903   2.434       .  S
Zr2901     O2907   2.369       .  S
Zr2901     O2908   2.383       .  S
Zr2901     O2931   2.374       .  S
Zr2901     O2933   2.395       .  S
O2902      H2945   0.990       .  S
O2903      H2944   0.990       .  S
O2903      H2948   0.990       .  S
Zr2904     O2906   2.435       .  S
Zr2904     O2908   2.359       .  S
Zr2904     O2907   2.346       .  S
Zr2904     O2932   2.361       .  S
Zr2904     O2934   2.361       .  S
O2905      H2946   0.990       .  S
O2905      H2949   0.990       .  S
O2906      H2939   0.990       .  S
O2907     Zr2927   2.381       .  S
O2908     Zr2928   2.389       .  S
O2908      H2935   0.966       .  S
O2909     Zr2921   2.498       .  S
O2909      C2911   1.299       .  A
O2910     Zr2928   2.411       .  S
O2910      C2911   1.284       .  A
C2911      C3025   1.486       .  S
O2912     Zr2924   2.399       .  S
O2912      C2914   1.280       .  A
O2913     Zr2927   2.464       .  S
O2913      C2914   1.293       .  A
C2914      C3088   1.479       .  S
O2915     Zr2924   2.381       .  S
O2915      C2917   1.276       .  A
O2916     Zr2928   2.458       .  S
O2916      C2917   1.291       .  A
C2917      C3049   1.459       .  S
O2918     Zr2921   2.496       .  S
O2918      C2920   1.298       .  A
O2919     Zr2927   2.434       .  S
O2919      C2920   1.291       .  A
C2920      C3037   1.502       .  S
Zr2921     O2922   2.437       .  S
Zr2921     O2923   2.434       .  S
Zr2921     O2929   2.384       .  S
Zr2921     O2930   2.369       .  S
Zr2921     O2933   2.396       .  S
Zr2921     O2931   2.381       .  S
O2922      H2942   0.990       .  S
O2922      H2947   0.990       .  S
O2923      H2943   0.990       .  S
Zr2924     O2925   2.434       .  S
Zr2924     O2926   2.435       .  S
Zr2924     O2930   2.345       .  S
Zr2924     O2929   2.363       .  S
Zr2924     O2934   2.367       .  S
Zr2924     O2932   2.360       .  S
O2925      H2941   0.990       .  S
O2926      H2940   0.990       .  S
O2926      H2950   0.990       .  S
Zr2927     O2930   2.381       .  S
Zr2927     O2932   2.375       .  S
Zr2927     O2933   2.418       .  S
Zr2928     O2929   2.400       .  S
Zr2928     O2931   2.406       .  S
Zr2928     O2934   2.372       .  S
O2929      H2937   0.966       .  S
O2932      H2936   0.966       .  S
O2933      H2938   0.966       .  S
O2951     Zr2963   2.457       .  S
O2951      C2953   1.290       .  A
O2952     Zr2989   2.433       .  S
O2952      C2953   1.288       .  A
C2953      C3172   1.479       .  S
O2954     Zr2966   2.405       .  S
O2954      C2956   1.281       .  A
O2955     Zr2990   2.492       .  S
O2955      C2956   1.300       .  A
C2956      C3028   1.483       .  S
O2957     Zr2966   2.449       .  S
O2957      C2959   1.289       .  A
O2958     Zr2989   2.400       .  S
O2958      C2959   1.282       .  A
C2959      C3292   1.479       .  S
O2960     Zr2963   2.433       .  S
O2960      C2962   1.288       .  A
O2961     Zr2990   2.466       .  S
O2961      C2962   1.295       .  A
C2962      C3112   1.482       .  S
Zr2963     O2964   2.434       .  S
Zr2963     O2965   2.435       .  S
Zr2963     O2969   2.377       .  S
Zr2963     O2970   2.370       .  S
Zr2963     O2993   2.370       .  S
Zr2963     O2995   2.363       .  S
O2964      H3007   0.990       .  S
O2965      H3006   0.990       .  S
O2965      H3010   0.990       .  S
Zr2966     O2967   2.435       .  S
Zr2966     O2968   2.434       .  S
Zr2966     O2970   2.370       .  S
Zr2966     O2969   2.371       .  S
Zr2966     O2994   2.353       .  S
Zr2966     O2996   2.378       .  S
O2967      H3008   0.990       .  S
O2967      H3011   0.990       .  S
O2968      H3001   0.990       .  S
O2969     Zr2989   2.374       .  S
O2970     Zr2990   2.411       .  S
O2970      H2997   0.965       .  S
O2971     Zr2983   2.413       .  S
O2971      C2973   1.275       .  A
O2972     Zr2990   2.523       .  S
O2972      C2973   1.299       .  A
C2973      C3160   1.514       .  S
O2974     Zr2986   2.443       .  S
O2974      C2976   1.287       .  A
O2975     Zr2989   2.407       .  S
O2975      C2976   1.282       .  A
C2976      C3124   1.459       .  S
O2977     Zr2986   2.419       .  S
O2977      C2979   1.281       .  A
O2978     Zr2990   2.503       .  S
O2978      C2979   1.302       .  A
C2979      C3277   1.511       .  S
O2980     Zr2983   2.463       .  S
O2980      C2982   1.292       .  A
O2981     Zr2989   2.382       .  S
O2981      C2982   1.278       .  A
C2982      C4333   1.469       .  S
Zr2983     O2984   2.439       .  S
Zr2983     O2985   2.434       .  S
Zr2983     O2991   2.394       .  S
Zr2983     O2992   2.357       .  S
Zr2983     O2995   2.352       .  S
Zr2983     O2993   2.384       .  S
O2984      H3004   0.990       .  S
O2984      H3009   0.990       .  S
O2985      H3005   0.990       .  S
Zr2986     O2987   2.436       .  S
Zr2986     O2988   2.439       .  S
Zr2986     O2992   2.364       .  S
Zr2986     O2991   2.374       .  S
Zr2986     O2996   2.372       .  S
Zr2986     O2994   2.363       .  S
O2987      H3003   0.990       .  S
O2988      H3002   0.990       .  S
O2988      H3012   0.990       .  S
Zr2989     O2992   2.379       .  S
Zr2989     O2994   2.380       .  S
Zr2989     O2995   2.371       .  S
Zr2990     O2991   2.421       .  S
Zr2990     O2993   2.409       .  S
Zr2990     O2996   2.402       .  S
O2991      H2999   0.966       .  S
O2994      H2998   0.965       .  S
O2995      H3000   0.965       .  S
C3013      C4302   1.469   1_545  S
C3013      C3014   1.408       .  A
C3013      C3018   1.402       .  A
C3014      C3015   1.403       .  A
C3014      H4339   1.084       .  S
C3015      C3016   1.404       .  A
C3016      C3017   1.407       .  A
C3017      C3018   1.390       .  A
C3017      H3021   1.084       .  S
C3018      O3022   1.372       .  S
H3019      C4334   1.084       .  S
O3020      H3024   0.992       .  S
O3022      H3023   0.992       .  S
C3025      C3026   1.401       .  A
C3025      C3030   1.412       .  A
C3026      C3027   1.405       .  A
C3026      H3031   1.084       .  S
C3027      C3028   1.413       .  A
C3027      O3032   1.372       .  S
C3028      C3029   1.405       .  A
C3029      C3030   1.409       .  A
C3029      H3033   1.084       .  S
C3030      O3034   1.371       .  S
O3032      H3036   0.992       .  S
O3034      H3035   0.992       .  S
C3037      C3038   1.410       .  A
C3037      C3042   1.413       .  A
C3038      C3039   1.418       .  A
C3038      H3043   1.083       .  S
C3039      C3040   1.413       .  A
C3039      O3044   1.371       .  S
C3040      C3041   1.400       .  A
C3041      C3042   1.400       .  A
C3041      H3045   1.085       .  S
C3042      O3046   1.368       .  S
O3044      H3048   0.992       .  S
O3046      H3047   0.992       .  S
C3049      C3050   1.400       .  A
C3049      C3054   1.408       .  A
C3050      C3711   1.398   1_554  A
C3050      H3055   1.084       .  S
C3051      C3710   1.398       .  A
C3051      C3052   1.409       .  A
C3051      O3056   1.370       .  S
C3052      C3713   1.404       .  A
C3053      C3712   1.404   1_554  A
C3053      C3054   1.400       .  A
C3053      H3057   1.084       .  S
C3054      O3058   1.372       .  S
O3056      H3060   0.992       .  S
O3058      H3059   0.992       .  S
C3061      C3062   1.406       .  A
C3061      C3066   1.410   1_554  A
C3062      C4383   1.410   1_554  A
C3062      H3067   1.084       .  S
C3063      C4382   1.410   1_556  A
C3063      C3724   1.413   1_565  A
C3063      O3728   1.371   1_565  S
C3064      C3723   1.413   1_545  A
C3064      C4385   1.407   1_545  A
C3065      C4384   1.407       .  A
C3065      C3726   1.405       .  A
C3065      H3069   1.084       .  S
C3066      C3725   1.405       .  A
C3066      O3070   1.372   1_556  S
O3068      C3723   1.371   1_545  S
O3068      H3732   0.992       .  S
O3070      H3071   0.992   1_554  S
H3072      O3728   0.992       .  S
C3073      C3074   1.394       .  A
C3073      C4398   1.407       .  A
C3074      C4395   1.396       .  A
C3074      H3079   1.084       .  S
C3075      C4394   1.396       .  A
C3075      C3076   1.421   1_565  A
C3075      O4400   1.371       .  S
C3076      C3077   1.407       .  A
C3077      C3078   1.406       .  A
C3077      H3081   1.083       .  S
C3078      C4393   1.407   1_545  A
C3078      O3082   1.371       .  S
O3080      C4395   1.371       .  S
O3080      H3084   0.991       .  S
O3082      H3083   0.992       .  S
C3085      C4116   1.475   1_545  S
C3085      C3086   1.403       .  A
C3085      C3090   1.403       .  A
C3086      C3087   1.403       .  A
C3086      H4411   1.080       .  S
C3087      C3088   1.406       .  A
C3087      O3092   1.368       .  S
C3088      C3089   1.408       .  A
C3089      C3090   1.398       .  A
C3089      H3093   1.084       .  S
C3090      O3094   1.371       .  S
H3091      C4406   1.080       .  S
O3092      H3096   0.992       .  S
O3094      H3095   0.992       .  S
C3097      C3098   1.410       .  A
C3097      C3102   1.409       .  A
C3098      C3099   1.401       .  A
C3098      H3103   1.084       .  S
C3099      C3100   1.407       .  A
C3099      O3104   1.372       .  S
C3100      C3101   1.413       .  A
C3101      C3102   1.413       .  A
C3101      H3105   1.082       .  S
C3102      O3106   1.371       .  S
O3104      H3108   0.992       .  S
O3106      H3107   0.991       .  S
C3109      C3110   1.408       .  A
C3109      C3114   1.408       .  A
C3110      C3111   1.414       .  A
C3110      H3115   1.083       .  S
C3111      C3112   1.410       .  A
C3111      O3116   1.371       .  S
C3112      C3113   1.403       .  A
C3113      C3114   1.396       .  A
C3113      H3117   1.084       .  S
C3114      O3118   1.372       .  S
O3116      H3120   0.992       .  S
O3118      H3119   0.991       .  S
C3121      C3122   1.404       .  A
C3121      C3126   1.406       .  A
C3122      C3123   1.399       .  A
C3122      H3127   1.084       .  S
C3123      C3124   1.404       .  A
C3123      O3128   1.372       .  S
C3124      C3125   1.397       .  A
C3125      C3126   1.399       .  A
C3125      H3129   1.084       .  S
C3126      O3130   1.373   1_655  S
O3128      H3132   0.992       .  S
O3130      H3131   0.992       .  S
C3133      C3794   1.408       .  A
C3133      C3138   1.412   1_655  A
C3134      C3793   1.408   1_554  A
C3134      H3139   1.083       .  S
C3135      C3136   1.408       .  A
C3135      O3140   1.371       .  S
C3136      C3137   1.400       .  A
C3137      H3141   1.085       .  S
C3138      O3142   1.370       .  S
C3145      C3146   1.412       .  A
C3146      H3151   1.083       .  S
C3147      C3148   1.411       .  A
C3147      O3152   1.371       .  S
C3148      C3149   1.400       .  A
C3149      C3150   1.401       .  A
C3149      H3153   1.085       .  S
C3150      O3154   1.370       .  S
O3154      H3155   0.991       .  S
C3157      C4478   1.417   1_545  A
C3157      C3822   1.405       .  A
C3158      C4477   1.417       .  A
C3158      C3159   1.425       .  A
C3158      H3163   1.083       .  S
C3159      C3820   1.413       .  A
C3159      O3164   1.370       .  S
C3160      C3819   1.413   1_554  A
C3160      C3161   1.411       .  A
C3161      C4482   1.399       .  A
C3161      H3165   1.076       .  S
C3162      C3817   1.405   1_554  A
C3162      C4481   1.399   1_545  A
C3162      O3166   1.373       .  S
O3164      H3168   0.992       .  S
O3166      H3167   0.992       .  S
C3169      C4490   1.409       .  A
C3169      C3174   1.410       .  A
C3170      C4489   1.409       .  A
C3170      C3171   1.402       .  A
C3170      H3175   1.084       .  S
C3171      C3172   1.404       .  A
C3171      O3176   1.372       .  S
C3172      C4493   1.406       .  A
C3173      C4492   1.406   1_545  A
C3173      C3174   1.406       .  A
C3173      H3177   1.084       .  S
C3174      O3178   1.371       .  S
O3176      H3180   0.992       .  S
O3178      H3179   0.992       .  S
C3181      C3182   1.399       .  A
C3181      C3186   1.408       .  A
C3182      C3183   1.386       .  A
C3182      H3187   1.084       .  S
C3183      C3184   1.407       .  A
C3183      O3188   1.373       .  S
C3184      C3185   1.403       .  A
C3185      C3186   1.403       .  A
C3186      O3190   1.374       .  S
O3188      H3192   0.992       .  S
O3190      H3191   0.991       .  S
C3193      C3194   1.394       .  A
C3193      C3198   1.408       .  A
C3194      C3195   1.385       .  A
C3194      H3199   1.083       .  S
C3195      C3196   1.418       .  A
C3195      O3200   1.373       .  S
C3196      C3197   1.409       .  A
C3197      C3198   1.407       .  A
C3197      H3201   1.083       .  S
C3198      O3202   1.371       .  S
O3200      H3204   0.992       .  S
O3202      H3203   0.992       .  S
C3205      C3206   1.395       .  A
C3205      C3210   1.415       .  A
C3206      H3211   1.084       .  S
C3207      C3208   1.417       .  A
C3207      O3212   1.373       .  S
C3208      C3209   1.407       .  A
C3209      H3213   1.083       .  S
C3210      O3214   1.371       .  S
O3212      H3216   0.992       .  S
O3214      H3215   0.992       .  S
C3217      C3222   1.408       .  A
C3218      C3219   1.392   1_455  A
C3219      C3220   1.414       .  A
C3219      O3224   1.372       .  S
C3220      C3221   1.408       .  A
C3221      H3225   1.083       .  S
C3222      O3226   1.372       .  S
O3224      H3228   0.992       .  S
O3226      H3227   0.992       .  S
C3229      C3230   1.399       .  A
C3229      C3234   1.399       .  A
C3230      C3231   1.393       .  A
C3230      H3235   1.084       .  S
C3231      C3232   1.402       .  A
C3231      O4556   1.370       .  S
C3232      C4051   1.438       .  S
C3232      C3233   1.401       .  A
C3233      C3234   1.378       .  A
C3233      H3237   1.085       .  S
C3234      O3238   1.373       .  S
O3236      C4551   1.370   1_545  S
O3236      H4560   0.992       .  S
O3238      H3239   0.992       .  S
H3240      O4556   0.992       .  S
C3241      C3242   1.401       .  A
C3241      C3246   1.414       .  A
C3242      C3243   1.397       .  A
C3242      H3247   1.084       .  S
C3243      C3244   1.407       .  A
C3243      O3248   1.372       .  S
C3244      C3245   1.391       .  A
C3245      C3246   1.389       .  A
C3245      H3249   1.085       .  S
C3246      O3250   1.372       .  S
O3248      H3252   0.992       .  S
O3250      H3251   0.992       .  S
C3253      C3254   1.406       .  A
C3253      C3258   1.410       .  A
C3254      C3255   1.394       .  A
C3254      H3259   1.083       .  S
C3255      C3256   1.401       .  A
C3255      O4580   1.374       .  S
C3256      C4169   1.443       .  S
C3256      C3257   1.398       .  A
C3257      C3258   1.391       .  A
C3257      H3261   1.085       .  S
C3258      O3262   1.371       .  S
O3260      C4575   1.374       .  S
O3260      H3264   0.992       .  S
O3262      H3263   0.992       .  S
C3265      C3266   1.401       .  A
C3265      C3270   1.407       .  A
C3266      C3267   1.391       .  A
C3266      H3271   1.084       .  S
C3267      C3268   1.404       .  A
C3267      O3272   1.372       .  S
C3268      C3269   1.402       .  A
C3269      C3270   1.400       .  A
C3269      H3273   1.084       .  S
C3270      O3274   1.372       .  S
O3272      H3276   0.992       .  S
O3274      H3275   0.992       .  S
C3277      C3278   1.421       .  A
C3277      C3942   1.408   1_554  A
C3278      C3279   1.411       .  A
C3278      H3283   1.083       .  S
C3279      C3940   1.402   1_554  A
C3279      O3284   1.371       .  S
C3280      C3939   1.402       .  A
C3280      C3281   1.417       .  A
C3281      C3282   1.409       .  A
C3281      H3285   1.084       .  S
C3282      C3937   1.408       .  A
C3282      O3286   1.371       .  S
O3284      H3288   0.992       .  S
O3286      H3287   0.992       .  S
C3289      C3290   1.404       .  A
C3289      C3294   1.415       .  A
C3290      C3291   1.391       .  A
C3290      H3295   1.083       .  S
C3291      C3292   1.412       .  A
C3291      O3296   1.372       .  S
C3292      C3293   1.404       .  A
C3293      C3294   1.402       .  A
C3293      H3297   1.083       .  S
C3294      O3298   1.371       .  S
O3296      H3300   0.992       .  S
O3298      H3299   0.992       .  S
O3301     Zr3313   2.441       .  S
O3301      C3303   1.287       .  A
O3302     Zr3339   2.407       .  S
O3302      C3303   1.285       .  A
C3303      C3949   1.485       .  S
O3304     Zr3316   2.375       .  S
O3304      C3306   1.275       .  A
O3305     Zr3340   2.528       .  S
O3305      C3306   1.306       .  A
C3306      C3940   1.496       .  S
O3307     Zr3316   2.376       .  S
O3307      C3309   1.275       .  A
O3308     Zr3339   2.398       .  S
O3308      C3309   1.280       .  A
C3309      C3889   1.426       .  S
O3310     Zr3313   2.417       .  S
O3310      C3312   1.284       .  A
O3311     Zr3340   2.425       .  S
O3311      C3312   1.288       .  A
C3312      C3928   1.456       .  S
Zr3313     O3314   2.434       .  S
Zr3313     O3315   2.436       .  S
Zr3313     O3319   2.359       .  S
Zr3313     O3320   2.370       .  S
Zr3313     O3343   2.360       .  S
Zr3313     O3345   2.366       .  S
O3314      H3357   0.990       .  S
O3315      H3356   0.990       .  S
O3315      H3360   0.990       .  S
Zr3316     O3317   2.437       .  S
Zr3316     O3318   2.435       .  S
Zr3316     O3320   2.359       .  S
Zr3316     O3319   2.361       .  S
Zr3316     O3344   2.350       .  S
Zr3316     O3346   2.370       .  S
O3317      H3358   0.990       .  S
O3317      H3361   0.990       .  S
O3318      H3351   0.990       .  S
O3319     Zr3339   2.371       .  S
O3320     Zr3340   2.391       .  S
O3320      H3347   0.965       .  S
O3321     Zr3333   2.401       .  S
O3321      C3323   1.282       .  A
O3322     Zr3340   2.442       .  S
O3322      C3323   1.293       .  A
C3323      C3901   1.465       .  S
O3324     Zr3336   2.420       .  S
O3324      C3326   1.278       .  A
O3325     Zr3339   2.391       .  S
O3325      C3326   1.278       .  A
O3327     Zr3336   2.403       .  S
O3327      C3329   1.271       .  A
O3328     Zr3340   2.495       .  S
O3328      C3329   1.298       .  A
C3329      C3865   1.474       .  S
O3330     Zr3333   2.448       .  S
O3330      C3332   1.289       .  A
O3331     Zr3339   2.398       .  S
O3331      C3332   1.282       .  A
C3332      C3880   1.483       .  S
Zr3333     O3334   2.435       .  S
Zr3333     O3335   2.434       .  S
Zr3333     O3341   2.371       .  S
Zr3333     O3342   2.349       .  S
Zr3333     O3345   2.355       .  S
Zr3333     O3343   2.368       .  S
O3334      H3354   0.990       .  S
O3334      H3359   0.990       .  S
O3335      H3355   0.990       .  S
Zr3336     O3337   2.434   1_655  S
Zr3336     O3338   2.438       .  S
Zr3336     O3342   2.368       .  S
Zr3336     O3341   2.375       .  S
Zr3336     O3346   2.384       .  S
Zr3336     O3344   2.358       .  S
O3338      H3352   0.989       .  S
O3338      H3362   0.990       .  S
Zr3339     O3342   2.378       .  S
Zr3339     O3344   2.391       .  S
Zr3339     O3345   2.373       .  S
Zr3340     O3341   2.407       .  S
Zr3340     O3343   2.408       .  S
Zr3340     O3346   2.381       .  S
O3341      H3349   0.964       .  S
O3344      H3348   0.966       .  S
O3345      H3350   0.966       .  S
O3363     Zr3375   2.408       .  S
O3363      C3365   1.281       .  A
O3364     Zr3401   2.422       .  S
O3364      C3365   1.287       .  A
C3365      C3904   1.446       .  S
O3366     Zr3378   2.416       .  S
O3366      C3368   1.284       .  A
O3367     Zr3402   2.414       .  S
O3367      C3368   1.284       .  A
O3369     Zr3378   2.403       .  S
O3369      C3371   1.280       .  A
O3370     Zr3401   2.489       .  S
O3370      C3371   1.298       .  A
C3371      C3808   1.482       .  S
O3372     Zr3375   2.443       .  S
O3372      C3374   1.288       .  A
O3373     Zr3402   2.452       .  S
O3373      C3374   1.293       .  A
C3374      C3793   1.487       .  S
Zr3375     O3376   2.434       .  S
Zr3375     O3377   2.434       .  S
Zr3375     O3381   2.392       .  S
Zr3375     O3382   2.354       .  S
Zr3375     O3405   2.380       .  S
Zr3375     O3407   2.368       .  S
O3376      H3419   0.990       .  S
O3377      H3418   0.990       .  S
O3377      H3422   0.990       .  S
Zr3378     O3379   2.435   1_655  S
Zr3378     O3380   2.434       .  S
Zr3378     O3382   2.341       .  S
Zr3378     O3381   2.366       .  S
Zr3378     O3406   2.364       .  S
Zr3378     O3408   2.360       .  S
O3379      H3420   0.990       .  S
O3380      H3413   0.990       .  S
O3381     Zr3401   2.388       .  S
O3382     Zr3402   2.380       .  S
O3382      H3409   0.963       .  S
O3383     Zr3395   2.491       .  S
O3383      C3385   1.294       .  A
O3384     Zr3402   2.447       .  S
O3384      C3385   1.292       .  A
C3385      C3817   1.506       .  S
O3386     Zr3398   2.410       .  S
O3386      C3388   1.276       .  A
O3387     Zr3401   2.466       .  S
O3387      C3388   1.290       .  A
C3388      C3829   1.484       .  S
O3389     Zr3398   2.368       .  S
O3389      C3391   1.275       .  A
O3390     Zr3402   2.408       .  S
O3390      C3391   1.282       .  A
C3391      C5212   1.438   1_545  S
O3392     Zr3395   2.450       .  S
O3392      C3394   1.287       .  A
O3393     Zr3401   2.412       .  S
O3393      C3394   1.282       .  A
C3394      C3853   1.469       .  S
Zr3395     O3396   2.439       .  S
Zr3395     O3397   2.435       .  S
Zr3395     O3403   2.366       .  S
Zr3395     O3404   2.379       .  S
Zr3395     O3407   2.377       .  S
Zr3395     O3405   2.382       .  S
O3396      H3416   0.990       .  S
O3396      H3421   0.990       .  S
O3397      H3417   0.990       .  S
Zr3398     O4719   2.434   1_545  S
Zr3398     O3400   2.436       .  S
Zr3398     O3404   2.339       .  S
Zr3398     O3403   2.368       .  S
Zr3398     O3408   2.363       .  S
Zr3398     O3406   2.353       .  S
O3399     Zr4718   2.434       .  S
O3399      H4735   0.990       .  S
O3400      H3414   0.990       .  S
O3400      H3424   0.990       .  S
Zr3401     O3404   2.399       .  S
Zr3401     O3406   2.378       .  S
Zr3401     O3407   2.427       .  S
Zr3402     O3403   2.395       .  S
Zr3402     O3405   2.384       .  S
Zr3402     O3408   2.390       .  S
O3403      H3411   0.965       .  S
O3406      H3410   0.966       .  S
O3407      H3412   0.966       .  S
H3415      O4719   0.990       .  S
O3425     Zr3437   2.408       .  S
O3425      C3427   1.281       .  A
O3426     Zr3463   2.438       .  S
O3426      C3427   1.287       .  A
O3428     Zr3440   2.402       .  S
O3428      C3430   1.281       .  A
O3429     Zr3464   2.495       .  S
O3429      C3430   1.300       .  A
C3430      C3757   1.492       .  S
O3431     Zr3440   2.438       .  S
O3431      C3433   1.287       .  A
O3432     Zr3463   2.409       .  S
O3432      C3433   1.285       .  A
C3433      C3877   1.473       .  S
O3434     Zr3437   2.378       .  S
O3434      C3436   1.276       .  A
O3435     Zr3464   2.499       .  S
O3435      C3436   1.299       .  A
C3436      C3868   1.492       .  S
Zr3437     O3439   2.436       .  S
Zr3437     O3443   2.346       .  S
Zr3437     O3444   2.369       .  S
Zr3437     O3467   2.365       .  S
Zr3437     O3469   2.359       .  S
O3438      H3481   0.990       .  S
O3439      H3480   0.990       .  S
O3439      H3484   0.990       .  S
Zr3440     O3441   2.438       .  S
Zr3440     O3442   2.434       .  S
Zr3440     O3444   2.381       .  S
Zr3440     O3443   2.351       .  S
Zr3440     O3468   2.366       .  S
Zr3440     O3470   2.368       .  S
O3441      H3482   0.990       .  S
O3441      H3485   0.990       .  S
O3442      H3475   0.990       .  S
O3443     Zr3463   2.369       .  S
O3444     Zr3464   2.402       .  S
O3444      H3471   0.966       .  S
O3445     Zr3457   2.392       .  S
O3445      C3447   1.278       .  A
O3446     Zr3464   2.499       .  S
O3446      C3447   1.301       .  A
C3447      C3721   1.480       .  S
O3448     Zr3460   2.454       .  S
O3448      C3450   1.290       .  A
O3449     Zr3463   2.423       .  S
O3449      C3450   1.287       .  A
C3450      C3733   1.470       .  S
O3451     Zr3460   2.442       .  S
O3451      C3453   1.289       .  A
O3452     Zr3464   2.454       .  S
O3452      C3453   1.292       .  A
C3453      C3769   1.483       .  S
O3454     Zr3457   2.458       .  S
O3454      C3456   1.291       .  A
O3455     Zr3463   2.411       .  S
O3455      C3456   1.283       .  A
C3456      C5065   1.475       .  S
Zr3457     O3458   2.436       .  S
Zr3457     O3459   2.436       .  S
Zr3457     O3465   2.382       .  S
Zr3457     O3466   2.345       .  S
Zr3457     O3469   2.355       .  S
Zr3457     O3467   2.387       .  S
O3458      H3478   0.990       .  S
O3458      H4803   0.990       .  S
O3459      H3479   0.990       .  S
Zr3460     O3461   2.434       .  S
Zr3460     O3462   2.434       .  S
Zr3460     O3466   2.365       .  S
Zr3460     O3465   2.377       .  S
Zr3460     O3470   2.368       .  S
Zr3460     O3468   2.381       .  S
O3461      H3477   0.990       .  S
O3462      H3476   0.990       .  S
O3462      H3486   0.990       .  S
Zr3463     O3466   2.377       .  S
Zr3463     O3468   2.390       .  S
Zr3463     O3469   2.375       .  S
Zr3464     O3465   2.415       .  S
Zr3464     O3467   2.397       .  S
Zr3464     O3470   2.401       .  S
O3465      H3473   0.966       .  S
O3468      H3472   0.966       .  S
O3469      H3474   0.966       .  S
H3483      O4778   0.990       .  S
O3487     Zr3499   2.408       .  S
O3487      C3489   1.281       .  A
O3488     Zr3525   2.493       .  S
O3488      C3489   1.299       .  A
C3489      C3700   1.485       .  S
O3490     Zr3502   2.422       .  S
O3490      C3492   1.283       .  A
O3491     Zr3526   2.451       .  S
O3491      C3492   1.293       .  A
C3492      C3712   1.474       .  S
O3493     Zr3502   2.411       .  S
O3493      C3495   1.283       .  A
O3494     Zr3525   2.428       .  S
O3494      C3495   1.288       .  A
C3495      C3925   1.459       .  S
O3496     Zr3499   2.428       .  S
O3496      C3498   1.288       .  A
O3497     Zr3526   2.404       .  S
O3497      C3498   1.282       .  A
C3498      C3841   1.464       .  S
Zr3499     O3500   2.434       .  S
Zr3499     O3501   2.435       .  S
Zr3499     O3505   2.370       .  S
Zr3499     O3506   2.348       .  S
Zr3499     O3529   2.356       .  S
Zr3499     O3531   2.371       .  S
O3500      H3543   0.990       .  S
O3501      H3542   0.990       .  S
O3501      H3546   0.990       .  S
Zr3502     O3503   2.437       .  S
Zr3502     O3504   2.435       .  S
Zr3502     O3506   2.355       .  S
Zr3502     O3505   2.378       .  S
Zr3502     O3530   2.358       .  S
Zr3502     O3532   2.385       .  S
O3503      H3544   0.990       .  S
O3503      H3547   0.990       .  S
O3504      H3537   0.990       .  S
O3505     Zr3525   2.388       .  S
O3506     Zr3526   2.386       .  S
O3506      H3533   0.964       .  S
O3507     Zr3519   2.404       .  S
O3507      C3509   1.279       .  A
O3508     Zr3526   2.409       .  S
O3508      C3509   1.282       .  A
C3509      C5236   1.443   1_545  S
O3510     Zr3522   2.413       .  S
O3510      C3512   1.283       .  A
O3511     Zr3525   2.440       .  S
O3511      C3512   1.290       .  A
C3512      C3856   1.485       .  S
O3513     Zr3522   2.457       .  S
O3513      C3515   1.290       .  A
O3514     Zr3526   2.456       .  S
O3514      C3515   1.294       .  A
C3515      C3724   1.497       .  S
O3516     Zr3519   2.412       .  S
O3516      C3518   1.276       .  A
O3517     Zr3525   2.460       .  S
O3517      C3518   1.289       .  A
C3518      C3736   1.492       .  S
Zr3519     O4840   2.439   1_545  S
Zr3519     O3521   2.435       .  S
Zr3519     O3527   2.355       .  S
Zr3519     O3528   2.354       .  S
Zr3519     O3531   2.361       .  S
Zr3519     O3529   2.364       .  S
O3520     Zr4839   2.439       .  S
O3520      H3540   0.990       .  S
O3520      H3545   0.990       .  S
O3521      H3541   0.990       .  S
Zr3522     O3523   2.433       .  S
Zr3522     O3524   2.434       .  S
Zr3522     O3528   2.374       .  S
Zr3522     O3527   2.361       .  S
Zr3522     O3532   2.368       .  S
Zr3522     O3530   2.374       .  S
O3523      H3539   0.990       .  S
O3524      H3538   0.990       .  S
O3524      H3548   0.990       .  S
Zr3525     O3528   2.395       .  S
Zr3525     O3530   2.411       .  S
Zr3525     O3531   2.392       .  S
Zr3526     O3527   2.385       .  S
Zr3526     O3529   2.392       .  S
Zr3526     O3532   2.384       .  S
O3527      H3535   0.964       .  S
O3530      H3534   0.966       .  S
O3531      H3536   0.966       .  S
O3549     Zr3561   2.481       .  S
O3549      C3551   1.295       .  A
O3550     Zr3587   2.443       .  S
O3550      C3551   1.293       .  A
C3551      C3805   1.501       .  S
O3552     Zr3564   2.381       .  S
O3552      C3554   1.275       .  A
O3553     Zr3588   2.470       .  S
O3553      C3554   1.293       .  A
C3554      C3796   1.466       .  S
O3555     Zr3564   2.382       .  S
O3555      C3557   1.278       .  A
O3556     Zr3587   2.454       .  S
O3556      C3557   1.291       .  A
O3558     Zr3561   2.487       .  S
O3558      C3560   1.298       .  A
O3559     Zr3588   2.425       .  S
O3559      C3560   1.286       .  A
C3560      C3760   1.495       .  S
Zr3561     O3562   2.433       .  S
Zr3561     O3563   2.434       .  S
Zr3561     O3567   2.369       .  S
Zr3561     O3568   2.383       .  S
Zr3561     O3591   2.374       .  S
Zr3561     O3593   2.395       .  S
O3562      H3605   0.990       .  S
O3563      H3604   0.990       .  S
O3563      H3608   0.990       .  S
Zr3564     O3566   2.435       .  S
Zr3564     O3568   2.359       .  S
Zr3564     O3567   2.346       .  S
Zr3564     O3592   2.361       .  S
Zr3564     O3594   2.361       .  S
O3565      H3606   0.990       .  S
O3565      H3609   0.990       .  S
O3566      H3599   0.990       .  S
O3567     Zr3587   2.381       .  S
O3568     Zr3588   2.389       .  S
O3568      H3595   0.966       .  S
O3569     Zr3581   2.498       .  S
O3569      C3571   1.299       .  A
O3570     Zr3588   2.411       .  S
O3570      C3571   1.284       .  A
C3571      C3685   1.486       .  S
O3572     Zr3584   2.399       .  S
O3572      C3574   1.280       .  A
O3573     Zr3587   2.464       .  S
O3573      C3574   1.293       .  A
C3574      C3748   1.479       .  S
O3575     Zr3584   2.381       .  S
O3575      C3577   1.276       .  A
O3576     Zr3588   2.458       .  S
O3576      C3577   1.291       .  A
C3577      C3709   1.459       .  S
O3578     Zr3581   2.496       .  S
O3578      C3580   1.298       .  A
O3579     Zr3587   2.434       .  S
O3579      C3580   1.291       .  A
C3580      C3697   1.502       .  S
Zr3581     O3582   2.437       .  S
Zr3581     O3583   2.434       .  S
Zr3581     O3589   2.384       .  S
Zr3581     O3590   2.369       .  S
Zr3581     O3593   2.396       .  S
Zr3581     O3591   2.381       .  S
O3582      H3602   0.990       .  S
O3582      H3607   0.990       .  S
O3583      H3603   0.990       .  S
Zr3584     O3585   2.434       .  S
Zr3584     O3586   2.435       .  S
Zr3584     O3590   2.345       .  S
Zr3584     O3589   2.363       .  S
Zr3584     O3594   2.367       .  S
Zr3584     O3592   2.360       .  S
O3585      H3601   0.990       .  S
O3586      H3600   0.990       .  S
O3586      H3610   0.990       .  S
Zr3587     O3590   2.381       .  S
Zr3587     O3592   2.375       .  S
Zr3587     O3593   2.418       .  S
Zr3588     O3589   2.400       .  S
Zr3588     O3591   2.406       .  S
Zr3588     O3594   2.372       .  S
O3589      H3597   0.966       .  S
O3592      H3596   0.966       .  S
O3593      H3598   0.966       .  S
O3611     Zr3623   2.457       .  S
O3611      C3613   1.290       .  A
O3612     Zr3649   2.433       .  S
O3612      C3613   1.288       .  A
C3613      C3832   1.479       .  S
O3614     Zr3626   2.405       .  S
O3614      C3616   1.281       .  A
O3615     Zr3650   2.492       .  S
O3615      C3616   1.300       .  A
C3616      C3688   1.483       .  S
O3617     Zr3626   2.449       .  S
O3617      C3619   1.289       .  A
O3618     Zr3649   2.400       .  S
O3618      C3619   1.282       .  A
C3619      C3952   1.479       .  S
O3620     Zr3623   2.433       .  S
O3620      C3622   1.288       .  A
O3621     Zr3650   2.466       .  S
O3621      C3622   1.295       .  A
C3622      C3772   1.482       .  S
Zr3623     O3624   2.434       .  S
Zr3623     O3625   2.435       .  S
Zr3623     O3629   2.377       .  S
Zr3623     O3630   2.370       .  S
Zr3623     O3653   2.370       .  S
Zr3623     O3655   2.363       .  S
O3624      H3667   0.990       .  S
O3625      H3666   0.990       .  S
O3625      H3670   0.990       .  S
Zr3626     O3627   2.435       .  S
Zr3626     O3628   2.434       .  S
Zr3626     O3630   2.370       .  S
Zr3626     O3629   2.371       .  S
Zr3626     O3654   2.353       .  S
Zr3626     O3656   2.378       .  S
O3627      H3668   0.990       .  S
O3627      H3671   0.990       .  S
O3628      H3661   0.990       .  S
O3629     Zr3649   2.374       .  S
O3630     Zr3650   2.411       .  S
O3630      H3657   0.965       .  S
O3631     Zr3643   2.413       .  S
O3631      C3633   1.275       .  A
O3632     Zr3650   2.523       .  S
O3632      C3633   1.299       .  A
C3633      C3820   1.514       .  S
O3634     Zr3646   2.443       .  S
O3634      C3636   1.287       .  A
O3635     Zr3649   2.407       .  S
O3635      C3636   1.282       .  A
C3636      C3784   1.459       .  S
O3637     Zr3646   2.419       .  S
O3637      C3639   1.281       .  A
O3638     Zr3650   2.503       .  S
O3638      C3639   1.302       .  A
C3639      C3937   1.511       .  S
O3640     Zr3643   2.463       .  S
O3640      C3642   1.292       .  A
O3641     Zr3649   2.382       .  S
O3641      C3642   1.278       .  A
C3642      C4993   1.469       .  S
Zr3643     O3644   2.439       .  S
Zr3643     O3645   2.434       .  S
Zr3643     O3651   2.394       .  S
Zr3643     O3652   2.357       .  S
Zr3643     O3655   2.352       .  S
Zr3643     O3653   2.384       .  S
O3644      H3664   0.990       .  S
O3644      H3669   0.990       .  S
O3645      H3665   0.990       .  S
Zr3646     O3647   2.436       .  S
Zr3646     O3648   2.439       .  S
Zr3646     O3652   2.364       .  S
Zr3646     O3651   2.374       .  S
Zr3646     O3656   2.372       .  S
Zr3646     O3654   2.363       .  S
O3647      H3663   0.990       .  S
O3648      H3662   0.990       .  S
O3648      H3672   0.990       .  S
Zr3649     O3652   2.379       .  S
Zr3649     O3654   2.380       .  S
Zr3649     O3655   2.371       .  S
Zr3650     O3651   2.421       .  S
Zr3650     O3653   2.409       .  S
Zr3650     O3656   2.402       .  S
O3651      H3659   0.966       .  S
O3654      H3658   0.965       .  S
O3655      H3660   0.965       .  S
C3673      C4962   1.469   1_545  S
C3673      C3674   1.408       .  A
C3673      C3678   1.402       .  A
C3674      C3675   1.403       .  A
C3674      H4999   1.084       .  S
C3675      C3676   1.404       .  A
C3676      C3677   1.407       .  A
C3677      C3678   1.390       .  A
C3677      H3681   1.084       .  S
C3678      O3682   1.372       .  S
H3679      C4994   1.084       .  S
O3680      H3684   0.992       .  S
O3682      H3683   0.992       .  S
C3685      C3686   1.401       .  A
C3685      C3690   1.412       .  A
C3686      C3687   1.405       .  A
C3686      H3691   1.084       .  S
C3687      C3688   1.413       .  A
C3687      O3692   1.372       .  S
C3688      C3689   1.405       .  A
C3689      C3690   1.409       .  A
C3689      H3693   1.084       .  S
C3690      O3694   1.371       .  S
O3692      H3696   0.992       .  S
O3694      H3695   0.992       .  S
C3697      C3698   1.410       .  A
C3697      C3702   1.413       .  A
C3698      C3699   1.418       .  A
C3698      H3703   1.083       .  S
C3699      C3700   1.413       .  A
C3699      O3704   1.371       .  S
C3700      C3701   1.400       .  A
C3701      C3702   1.400       .  A
C3701      H3705   1.085       .  S
C3702      O3706   1.368       .  S
O3704      H3708   0.992       .  S
O3706      H3707   0.992       .  S
C3709      C3710   1.400       .  A
C3709      C3714   1.408       .  A
C3710      H3715   1.084       .  S
C3711      C3712   1.409       .  A
C3711      O3716   1.370       .  S
C3713      C3714   1.400       .  A
C3713      H3717   1.084       .  S
C3714      O3718   1.372       .  S
O3716      H3720   0.992       .  S
O3718      H3719   0.992       .  S
C3721      C3722   1.406       .  A
C3721      C3726   1.410       .  A
C3722      C5043   1.410       .  A
C3722      H3727   1.084       .  S
C3723      C5042   1.410       .  A
C3724      C5045   1.407   1_545  A
C3725      C5044   1.407       .  A
C3725      H3729   1.084       .  S
C3726      O3730   1.372       .  S
O3730      H3731   0.992       .  S
C3733      C3734   1.394       .  A
C3733      C5058   1.407       .  A
C3734      C5055   1.396       .  A
C3734      H3739   1.084       .  S
C3735      C5054   1.396       .  A
C3735      C3736   1.421   1_565  A
C3735      O5060   1.371       .  S
C3736      C3737   1.407       .  A
C3737      C3738   1.406       .  A
C3737      H3741   1.083       .  S
C3738      C5053   1.407   1_545  A
C3738      O3742   1.371       .  S
O3740      C5055   1.371       .  S
O3740      H3744   0.991       .  S
O3742      H3743   0.992       .  S
C3745      C4776   1.475   1_545  S
C3745      C3746   1.403       .  A
C3745      C3750   1.403       .  A
C3746      C3747   1.403       .  A
C3746      H5071   1.080       .  S
C3747      C3748   1.406       .  A
C3747      O3752   1.368       .  S
C3748      C3749   1.408       .  A
C3749      C3750   1.398       .  A
C3749      H3753   1.084       .  S
C3750      O3754   1.371       .  S
H3751      C5066   1.080       .  S
O3752      H3756   0.992       .  S
O3754      H3755   0.992       .  S
C3757      C3758   1.410       .  A
C3757      C3762   1.409       .  A
C3758      C3759   1.401       .  A
C3758      H3763   1.084       .  S
C3759      C3760   1.407       .  A
C3759      O3764   1.372       .  S
C3760      C3761   1.413       .  A
C3761      C3762   1.413       .  A
C3761      H3765   1.082       .  S
C3762      O3766   1.371       .  S
O3764      H3768   0.992       .  S
O3766      H3767   0.991       .  S
C3769      C3770   1.408       .  A
C3769      C3774   1.408       .  A
C3770      C3771   1.414       .  A
C3770      H3775   1.083       .  S
C3771      C3772   1.410       .  A
C3771      O3776   1.371       .  S
C3772      C3773   1.403       .  A
C3773      C3774   1.396       .  A
C3773      H3777   1.084       .  S
C3774      O3778   1.372       .  S
O3776      H3780   0.992       .  S
O3778      H3779   0.991       .  S
C3781      C3782   1.404       .  A
C3781      C3786   1.406       .  A
C3782      C3783   1.399       .  A
C3782      H3787   1.084       .  S
C3783      C3784   1.404       .  A
C3783      O3788   1.372       .  S
C3784      C3785   1.397       .  A
C3785      C3786   1.399       .  A
C3785      H3789   1.084       .  S
C3786      O3790   1.373   1_655  S
O3788      H3792   0.992       .  S
O3790      H3791   0.992       .  S
C3793      C3798   1.412   1_655  A
C3794      H3799   1.083       .  S
C3795      C3796   1.408       .  A
C3795      O3800   1.371       .  S
C3796      C3797   1.400       .  A
C3797      H3801   1.085       .  S
C3798      O3802   1.370       .  S
C3805      C3806   1.412       .  A
C3806      H3811   1.083       .  S
C3807      C3808   1.411       .  A
C3807      O3812   1.371       .  S
C3808      C3809   1.400       .  A
C3809      C3810   1.401       .  A
C3809      H3813   1.085       .  S
C3810      O3814   1.370       .  S
O3814      H3815   0.991       .  S
C3817      C5138   1.417   1_545  A
C3818      C5137   1.417       .  A
C3818      C3819   1.425       .  A
C3818      H3823   1.083       .  S
C3819      O3824   1.370       .  S
C3820      C3821   1.411       .  A
C3821      C5142   1.399       .  A
C3821      H3825   1.076       .  S
C3822      C5141   1.399   1_545  A
C3822      O3826   1.373       .  S
O3824      H3828   0.992       .  S
O3826      H3827   0.992       .  S
C3829      C5150   1.409       .  A
C3829      C3834   1.410       .  A
C3830      C5149   1.409       .  A
C3830      C3831   1.402       .  A
C3830      H3835   1.084       .  S
C3831      C3832   1.404       .  A
C3831      O3836   1.372       .  S
C3832      C5153   1.406       .  A
C3833      C5152   1.406   1_545  A
C3833      C3834   1.406       .  A
C3833      H3837   1.084       .  S
C3834      O3838   1.371       .  S
O3836      H3840   0.992       .  S
O3838      H3839   0.992       .  S
C3841      C3842   1.399       .  A
C3841      C3846   1.408       .  A
C3842      C3843   1.386       .  A
C3842      H3847   1.084       .  S
C3843      C3844   1.407       .  A
C3843      O3848   1.373       .  S
C3844      C3845   1.403       .  A
C3845      C3846   1.403       .  A
C3846      O3850   1.374       .  S
O3848      H3852   0.992       .  S
O3850      H3851   0.991       .  S
C3853      C3854   1.394       .  A
C3853      C3858   1.408       .  A
C3854      C3855   1.385       .  A
C3854      H3859   1.083       .  S
C3855      C3856   1.418       .  A
C3855      O3860   1.373       .  S
C3856      C3857   1.409       .  A
C3857      C3858   1.407       .  A
C3857      H3861   1.083       .  S
C3858      O3862   1.371       .  S
O3860      H3864   0.992       .  S
O3862      H3863   0.992       .  S
C3865      C3866   1.395       .  A
C3865      C3870   1.415       .  A
C3866      H3871   1.084       .  S
C3867      C3868   1.417       .  A
C3867      O3872   1.373       .  S
C3868      C3869   1.407       .  A
C3869      H3873   1.083       .  S
C3870      O3874   1.371       .  S
O3872      H3876   0.992       .  S
O3874      H3875   0.992       .  S
C3877      C3882   1.408       .  A
C3878      C3879   1.392   1_455  A
C3879      C3880   1.414       .  A
C3879      O3884   1.372       .  S
C3880      C3881   1.408       .  A
C3881      H3885   1.083       .  S
C3882      O3886   1.372       .  S
O3884      H3888   0.992       .  S
O3886      H3887   0.992       .  S
C3889      C3890   1.399       .  A
C3889      C3894   1.399       .  A
C3890      C3891   1.393       .  A
C3890      H3895   1.084       .  S
C3891      C3892   1.402       .  A
C3891      O5216   1.370       .  S
C3892      C4711   1.438       .  S
C3892      C3893   1.401       .  A
C3893      C3894   1.378       .  A
C3893      H3897   1.085       .  S
C3894      O3898   1.373       .  S
O3896      C5211   1.370   1_545  S
O3896      H5220   0.992       .  S
O3898      H3899   0.992       .  S
H3900      O5216   0.992       .  S
C3901      C3902   1.401       .  A
C3901      C3906   1.414       .  A
C3902      C3903   1.397       .  A
C3902      H3907   1.084       .  S
C3903      C3904   1.407       .  A
C3903      O3908   1.372       .  S
C3904      C3905   1.391       .  A
C3905      C3906   1.389       .  A
C3905      H3909   1.085       .  S
C3906      O3910   1.372       .  S
O3908      H3912   0.992       .  S
O3910      H3911   0.992       .  S
C3913      C3914   1.406       .  A
C3913      C3918   1.410       .  A
C3914      C3915   1.394       .  A
C3914      H3919   1.083       .  S
C3915      C3916   1.401       .  A
C3915      O5240   1.374       .  S
C3916      C4829   1.443       .  S
C3916      C3917   1.398       .  A
C3917      C3918   1.391       .  A
C3917      H3921   1.085       .  S
C3918      O3922   1.371       .  S
O3920      C5235   1.374       .  S
O3920      H3924   0.992       .  S
O3922      H3923   0.992       .  S
C3925      C3926   1.401       .  A
C3925      C3930   1.407       .  A
C3926      C3927   1.391       .  A
C3926      H3931   1.084       .  S
C3927      C3928   1.404       .  A
C3927      O3932   1.372       .  S
C3928      C3929   1.402       .  A
C3929      C3930   1.400       .  A
C3929      H3933   1.084       .  S
C3930      O3934   1.372       .  S
O3932      H3936   0.992       .  S
O3934      H3935   0.992       .  S
C3937      C3938   1.421       .  A
C3938      C3939   1.411       .  A
C3938      H3943   1.083       .  S
C3939      O3944   1.371       .  S
C3940      C3941   1.417       .  A
C3941      C3942   1.409       .  A
C3941      H3945   1.084       .  S
C3942      O3946   1.371       .  S
O3944      H3948   0.992       .  S
O3946      H3947   0.992       .  S
C3949      C3950   1.404       .  A
C3949      C3954   1.415       .  A
C3950      C3951   1.391       .  A
C3950      H3955   1.083       .  S
C3951      C3952   1.412       .  A
C3951      O3956   1.372       .  S
C3952      C3953   1.404       .  A
C3953      C3954   1.402       .  A
C3953      H3957   1.083       .  S
C3954      O3958   1.371       .  S
O3956      H3960   0.992       .  S
O3958      H3959   0.992       .  S
O3961     Zr3973   2.441       .  S
O3961      C3963   1.287       .  A
O3962     Zr3999   2.407       .  S
O3962      C3963   1.285       .  A
C3963      C4609   1.485       .  S
O3964     Zr3976   2.375       .  S
O3964      C3966   1.275       .  A
O3965     Zr4000   2.528       .  S
O3965      C3966   1.306       .  A
C3966      C4600   1.496       .  S
O3967     Zr3976   2.376       .  S
O3967      C3969   1.275       .  A
O3968     Zr3999   2.398       .  S
O3968      C3969   1.280       .  A
C3969      C4549   1.426       .  S
O3970     Zr3973   2.417       .  S
O3970      C3972   1.284       .  A
O3971     Zr4000   2.425       .  S
O3971      C3972   1.288       .  A
C3972      C4588   1.456       .  S
Zr3973     O3974   2.434       .  S
Zr3973     O3975   2.436       .  S
Zr3973     O3979   2.359       .  S
Zr3973     O3980   2.370       .  S
Zr3973     O4003   2.360       .  S
Zr3973     O4005   2.366       .  S
O3974      H4017   0.990       .  S
O3975      H4016   0.990       .  S
O3975      H4020   0.990       .  S
Zr3976     O3977   2.437       .  S
Zr3976     O3978   2.435       .  S
Zr3976     O3980   2.359       .  S
Zr3976     O3979   2.361       .  S
Zr3976     O4004   2.350       .  S
Zr3976     O4006   2.370       .  S
O3977      H4018   0.990       .  S
O3977      H4021   0.990       .  S
O3978      H4011   0.990       .  S
O3979     Zr3999   2.371       .  S
O3980     Zr4000   2.391       .  S
O3980      H4007   0.965       .  S
O3981     Zr3993   2.401       .  S
O3981      C3983   1.282       .  A
O3982     Zr4000   2.442       .  S
O3982      C3983   1.293       .  A
C3983      C4561   1.465       .  S
O3984     Zr3996   2.420       .  S
O3984      C3986   1.278       .  A
O3985     Zr3999   2.391       .  S
O3985      C3986   1.278       .  A
O3987     Zr3996   2.403       .  S
O3987      C3989   1.271       .  A
O3988     Zr4000   2.495       .  S
O3988      C3989   1.298       .  A
C3989      C4525   1.474       .  S
O3990     Zr3993   2.448       .  S
O3990      C3992   1.289       .  A
O3991     Zr3999   2.398       .  S
O3991      C3992   1.282       .  A
C3992      C4540   1.483       .  S
Zr3993     O3994   2.435       .  S
Zr3993     O3995   2.434       .  S
Zr3993     O4001   2.371       .  S
Zr3993     O4002   2.349       .  S
Zr3993     O4005   2.355       .  S
Zr3993     O4003   2.368       .  S
O3994      H4014   0.990       .  S
O3994      H4019   0.990       .  S
O3995      H4015   0.990       .  S
Zr3996     O3997   2.434   1_655  S
Zr3996     O3998   2.438       .  S
Zr3996     O4002   2.368       .  S
Zr3996     O4001   2.375       .  S
Zr3996     O4006   2.384       .  S
Zr3996     O4004   2.358       .  S
O3998      H4012   0.989       .  S
O3998      H4022   0.990       .  S
Zr3999     O4002   2.378       .  S
Zr3999     O4004   2.391       .  S
Zr3999     O4005   2.373       .  S
Zr4000     O4001   2.407       .  S
Zr4000     O4003   2.408       .  S
Zr4000     O4006   2.381       .  S
O4001      H4009   0.964       .  S
O4004      H4008   0.966       .  S
O4005      H4010   0.966       .  S
O4023     Zr4035   2.408       .  S
O4023      C4025   1.281       .  A
O4024     Zr4061   2.422       .  S
O4024      C4025   1.287       .  A
C4025      C4564   1.446       .  S
O4026     Zr4038   2.416       .  S
O4026      C4028   1.284       .  A
O4027     Zr4062   2.414       .  S
O4027      C4028   1.284       .  A
O4029     Zr4038   2.403       .  S
O4029      C4031   1.280       .  A
O4030     Zr4061   2.489       .  S
O4030      C4031   1.298       .  A
C4031      C4468   1.482       .  S
O4032     Zr4035   2.443       .  S
O4032      C4034   1.288       .  A
O4033     Zr4062   2.452       .  S
O4033      C4034   1.293       .  A
C4034      C4453   1.487       .  S
Zr4035     O4036   2.434       .  S
Zr4035     O4037   2.434       .  S
Zr4035     O4041   2.392       .  S
Zr4035     O4042   2.354       .  S
Zr4035     O4065   2.380       .  S
Zr4035     O4067   2.368       .  S
O4036      H4079   0.990       .  S
O4037      H4078   0.990       .  S
O4037      H4082   0.990       .  S
Zr4038     O4039   2.435   1_655  S
Zr4038     O4040   2.434       .  S
Zr4038     O4042   2.341       .  S
Zr4038     O4041   2.366       .  S
Zr4038     O4066   2.364       .  S
Zr4038     O4068   2.360       .  S
O4039      H4080   0.990       .  S
O4040      H4073   0.990       .  S
O4041     Zr4061   2.388       .  S
O4042     Zr4062   2.380       .  S
O4042      H4069   0.963       .  S
O4043     Zr4055   2.491       .  S
O4043      C4045   1.294       .  A
O4044     Zr4062   2.447       .  S
O4044      C4045   1.292       .  A
C4045      C4477   1.506       .  S
O4046     Zr4058   2.410       .  S
O4046      C4048   1.276       .  A
O4047     Zr4061   2.466       .  S
O4047      C4048   1.290       .  A
C4048      C4489   1.484       .  S
O4049     Zr4058   2.368       .  S
O4049      C4051   1.275       .  A
O4050     Zr4062   2.408       .  S
O4050      C4051   1.282       .  A
O4052     Zr4055   2.450       .  S
O4052      C4054   1.287       .  A
O4053     Zr4061   2.412       .  S
O4053      C4054   1.282       .  A
C4054      C4513   1.469       .  S
Zr4055     O4056   2.439       .  S
Zr4055     O4057   2.435       .  S
Zr4055     O4063   2.366       .  S
Zr4055     O4064   2.379       .  S
Zr4055     O4067   2.377       .  S
Zr4055     O4065   2.382       .  S
O4056      H4076   0.990       .  S
O4056      H4081   0.990       .  S
O4057      H4077   0.990       .  S
Zr4058     O4060   2.436       .  S
Zr4058     O4064   2.339       .  S
Zr4058     O4063   2.368       .  S
Zr4058     O4068   2.363       .  S
Zr4058     O4066   2.353       .  S
O4060      H4074   0.990       .  S
O4060      H4084   0.990       .  S
Zr4061     O4064   2.399       .  S
Zr4061     O4066   2.378       .  S
Zr4061     O4067   2.427       .  S
Zr4062     O4063   2.395       .  S
Zr4062     O4065   2.384       .  S
Zr4062     O4068   2.390       .  S
O4063      H4071   0.965       .  S
O4066      H4070   0.966       .  S
O4067      H4072   0.966       .  S
O4085     Zr4097   2.408       .  S
O4085      C4087   1.281       .  A
O4086     Zr4123   2.438       .  S
O4086      C4087   1.287       .  A
O4088     Zr4100   2.402       .  S
O4088      C4090   1.281       .  A
O4089     Zr4124   2.495       .  S
O4089      C4090   1.300       .  A
C4090      C4417   1.492       .  S
O4091     Zr4100   2.438       .  S
O4091      C4093   1.287       .  A
O4092     Zr4123   2.409       .  S
O4092      C4093   1.285       .  A
C4093      C4537   1.473       .  S
O4094     Zr4097   2.378       .  S
O4094      C4096   1.276       .  A
O4095     Zr4124   2.499       .  S
O4095      C4096   1.299       .  A
C4096      C4528   1.492       .  S
Zr4097     O4099   2.436       .  S
Zr4097     O4103   2.346       .  S
Zr4097     O4104   2.369       .  S
Zr4097     O4127   2.365       .  S
Zr4097     O4129   2.359       .  S
O4098      H4141   0.990       .  S
O4099      H4140   0.990       .  S
O4099      H4144   0.990       .  S
Zr4100     O4101   2.438       .  S
Zr4100     O4102   2.434       .  S
Zr4100     O4104   2.381       .  S
Zr4100     O4103   2.351       .  S
Zr4100     O4128   2.366       .  S
Zr4100     O4130   2.368       .  S
O4101      H4142   0.990       .  S
O4101      H4145   0.990       .  S
O4102      H4135   0.990       .  S
O4103     Zr4123   2.369       .  S
O4104     Zr4124   2.402       .  S
O4104      H4131   0.966       .  S
O4105     Zr4117   2.392       .  S
O4105      C4107   1.278       .  A
O4106     Zr4124   2.499       .  S
O4106      C4107   1.301       .  A
C4107      C4381   1.480       .  S
O4108     Zr4120   2.454       .  S
O4108      C4110   1.290       .  A
O4109     Zr4123   2.423       .  S
O4109      C4110   1.287       .  A
C4110      C4393   1.470       .  S
O4111     Zr4120   2.442       .  S
O4111      C4113   1.289       .  A
O4112     Zr4124   2.454       .  S
O4112      C4113   1.292       .  A
C4113      C4429   1.483       .  S
O4114     Zr4117   2.458       .  S
O4114      C4116   1.291       .  A
O4115     Zr4123   2.411       .  S
O4115      C4116   1.283       .  A
Zr4117     O4118   2.436   1_565  S
Zr4117     O4119   2.436       .  S
Zr4117     O4125   2.382       .  S
Zr4117     O4126   2.345       .  S
Zr4117     O4129   2.355       .  S
Zr4117     O4127   2.387       .  S
O4118      H4138   0.990   1_545  S
O4119      H4139   0.990       .  S
Zr4120     O4121   2.434       .  S
Zr4120     O4122   2.434       .  S
Zr4120     O4126   2.365       .  S
Zr4120     O4125   2.377       .  S
Zr4120     O4130   2.368       .  S
Zr4120     O4128   2.381       .  S
O4121      H4137   0.990       .  S
O4122      H4136   0.990       .  S
O4122      H4146   0.990       .  S
Zr4123     O4126   2.377       .  S
Zr4123     O4128   2.390       .  S
Zr4123     O4129   2.375       .  S
Zr4124     O4125   2.415       .  S
Zr4124     O4127   2.397       .  S
Zr4124     O4130   2.401       .  S
O4125      H4133   0.966       .  S
O4128      H4132   0.966       .  S
O4129      H4134   0.966       .  S
O4147     Zr4159   2.408       .  S
O4147      C4149   1.281       .  A
O4148     Zr4185   2.493       .  S
O4148      C4149   1.299       .  A
C4149      C4360   1.485       .  S
O4150     Zr4162   2.422       .  S
O4150      C4152   1.283       .  A
O4151     Zr4186   2.451       .  S
O4151      C4152   1.293       .  A
C4152      C4372   1.474       .  S
O4153     Zr4162   2.411       .  S
O4153      C4155   1.283       .  A
O4154     Zr4185   2.428       .  S
O4154      C4155   1.288       .  A
C4155      C4585   1.459       .  S
O4156     Zr4159   2.428       .  S
O4156      C4158   1.288       .  A
O4157     Zr4186   2.404       .  S
O4157      C4158   1.282       .  A
C4158      C4501   1.464       .  S
Zr4159     O4160   2.434       .  S
Zr4159     O4161   2.435       .  S
Zr4159     O4165   2.370       .  S
Zr4159     O4166   2.348       .  S
Zr4159     O4189   2.356       .  S
Zr4159     O4191   2.371       .  S
O4160      H4203   0.990       .  S
O4161      H4202   0.990       .  S
O4161      H4206   0.990       .  S
Zr4162     O4163   2.437       .  S
Zr4162     O4164   2.435       .  S
Zr4162     O4166   2.355       .  S
Zr4162     O4165   2.378       .  S
Zr4162     O4190   2.358       .  S
Zr4162     O4192   2.385       .  S
O4163      H4204   0.990       .  S
O4163      H4207   0.990       .  S
O4164      H4197   0.990       .  S
O4165     Zr4185   2.388       .  S
O4166     Zr4186   2.386       .  S
O4166      H4193   0.964       .  S
O4167     Zr4179   2.404       .  S
O4167      C4169   1.279       .  A
O4168     Zr4186   2.409       .  S
O4168      C4169   1.282       .  A
O4170     Zr4182   2.413       .  S
O4170      C4172   1.283       .  A
O4171     Zr4185   2.440       .  S
O4171      C4172   1.290       .  A
C4172      C4516   1.485       .  S
O4173     Zr4182   2.457       .  S
O4173      C4175   1.290       .  A
O4174     Zr4186   2.456       .  S
O4174      C4175   1.294       .  A
C4175      C4384   1.497       .  S
O4176     Zr4179   2.412       .  S
O4176      C4178   1.276       .  A
O4177     Zr4185   2.460       .  S
O4177      C4178   1.289       .  A
C4178      C4396   1.492       .  S
Zr4179     O4181   2.435       .  S
Zr4179     O4187   2.355       .  S
Zr4179     O4188   2.354       .  S
Zr4179     O4191   2.361       .  S
Zr4179     O4189   2.364       .  S
O4180      H4200   0.990       .  S
O4180      H4205   0.990       .  S
O4181      H4201   0.990       .  S
Zr4182     O4183   2.433       .  S
Zr4182     O4184   2.434       .  S
Zr4182     O4188   2.374       .  S
Zr4182     O4187   2.361       .  S
Zr4182     O4192   2.368       .  S
Zr4182     O4190   2.374       .  S
O4183      H4199   0.990       .  S
O4184      H4198   0.990       .  S
O4184      H4208   0.990       .  S
Zr4185     O4188   2.395       .  S
Zr4185     O4190   2.411       .  S
Zr4185     O4191   2.392       .  S
Zr4186     O4187   2.385       .  S
Zr4186     O4189   2.392       .  S
Zr4186     O4192   2.384       .  S
O4187      H4195   0.964       .  S
O4190      H4194   0.966       .  S
O4191      H4196   0.966       .  S
O4209     Zr4221   2.481       .  S
O4209      C4211   1.295       .  A
O4210     Zr4247   2.443       .  S
O4210      C4211   1.293       .  A
C4211      C4465   1.501       .  S
O4212     Zr4224   2.381       .  S
O4212      C4214   1.275       .  A
O4213     Zr4248   2.470       .  S
O4213      C4214   1.293       .  A
C4214      C4456   1.466       .  S
O4215     Zr4224   2.382       .  S
O4215      C4217   1.278       .  A
O4216     Zr4247   2.454       .  S
O4216      C4217   1.291       .  A
O4218     Zr4221   2.487       .  S
O4218      C4220   1.298       .  A
O4219     Zr4248   2.425       .  S
O4219      C4220   1.286       .  A
C4220      C4420   1.495       .  S
Zr4221     O4222   2.433       .  S
Zr4221     O4223   2.434       .  S
Zr4221     O4227   2.369       .  S
Zr4221     O4228   2.383       .  S
Zr4221     O4251   2.374       .  S
Zr4221     O4253   2.395       .  S
O4222      H4265   0.990       .  S
O4223      H4264   0.990       .  S
O4223      H4268   0.990       .  S
Zr4224     O4226   2.435       .  S
Zr4224     O4228   2.359       .  S
Zr4224     O4227   2.346       .  S
Zr4224     O4252   2.361       .  S
Zr4224     O4254   2.361       .  S
O4225      H4266   0.990       .  S
O4225      H4269   0.990       .  S
O4226      H4259   0.990       .  S
O4227     Zr4247   2.381       .  S
O4228     Zr4248   2.389       .  S
O4228      H4255   0.966       .  S
O4229     Zr4241   2.498       .  S
O4229      C4231   1.299       .  A
O4230     Zr4248   2.411       .  S
O4230      C4231   1.284       .  A
C4231      C4345   1.486       .  S
O4232     Zr4244   2.399       .  S
O4232      C4234   1.280       .  A
O4233     Zr4247   2.464       .  S
O4233      C4234   1.293       .  A
C4234      C4408   1.479       .  S
O4235     Zr4244   2.381       .  S
O4235      C4237   1.276       .  A
O4236     Zr4248   2.458       .  S
O4236      C4237   1.291       .  A
C4237      C4369   1.459       .  S
O4238     Zr4241   2.496       .  S
O4238      C4240   1.298       .  A
O4239     Zr4247   2.434       .  S
O4239      C4240   1.291       .  A
C4240      C4357   1.502       .  S
Zr4241     O4242   2.437       .  S
Zr4241     O4243   2.434       .  S
Zr4241     O4249   2.384       .  S
Zr4241     O4250   2.369       .  S
Zr4241     O4253   2.396       .  S
Zr4241     O4251   2.381       .  S
O4242      H4262   0.990       .  S
O4242      H4267   0.990       .  S
O4243      H4263   0.990       .  S
Zr4244     O4245   2.434       .  S
Zr4244     O4246   2.435       .  S
Zr4244     O4250   2.345       .  S
Zr4244     O4249   2.363       .  S
Zr4244     O4254   2.367       .  S
Zr4244     O4252   2.360       .  S
O4245      H4261   0.990       .  S
O4246      H4260   0.990       .  S
O4246      H4270   0.990       .  S
Zr4247     O4250   2.381       .  S
Zr4247     O4252   2.375       .  S
Zr4247     O4253   2.418       .  S
Zr4248     O4249   2.400       .  S
Zr4248     O4251   2.406       .  S
Zr4248     O4254   2.372       .  S
O4249      H4257   0.966       .  S
O4252      H4256   0.966       .  S
O4253      H4258   0.966       .  S
O4271     Zr4283   2.457       .  S
O4271      C4273   1.290       .  A
O4272     Zr4309   2.433       .  S
O4272      C4273   1.288       .  A
C4273      C4492   1.479       .  S
O4274     Zr4286   2.405       .  S
O4274      C4276   1.281       .  A
O4275     Zr4310   2.492       .  S
O4275      C4276   1.300       .  A
C4276      C4348   1.483       .  S
O4277     Zr4286   2.449       .  S
O4277      C4279   1.289       .  A
O4278     Zr4309   2.400       .  S
O4278      C4279   1.282       .  A
C4279      C4612   1.479       .  S
O4280     Zr4283   2.433       .  S
O4280      C4282   1.288       .  A
O4281     Zr4310   2.466       .  S
O4281      C4282   1.295       .  A
C4282      C4432   1.482       .  S
Zr4283     O4284   2.434       .  S
Zr4283     O4285   2.435       .  S
Zr4283     O4289   2.377       .  S
Zr4283     O4290   2.370       .  S
Zr4283     O4313   2.370       .  S
Zr4283     O4315   2.363       .  S
O4284      H4327   0.990       .  S
O4285      H4326   0.990       .  S
O4285      H4330   0.990       .  S
Zr4286     O4287   2.435       .  S
Zr4286     O4288   2.434       .  S
Zr4286     O4290   2.370       .  S
Zr4286     O4289   2.371       .  S
Zr4286     O4314   2.353       .  S
Zr4286     O4316   2.378       .  S
O4287      H4328   0.990       .  S
O4287      H4331   0.990       .  S
O4288      H4321   0.990       .  S
O4289     Zr4309   2.374       .  S
O4290     Zr4310   2.411       .  S
O4290      H4317   0.965       .  S
O4291     Zr4303   2.413       .  S
O4291      C4293   1.275       .  A
O4292     Zr4310   2.523       .  S
O4292      C4293   1.299       .  A
C4293      C4480   1.514       .  S
O4294     Zr4306   2.443       .  S
O4294      C4296   1.287       .  A
O4295     Zr4309   2.407       .  S
O4295      C4296   1.282       .  A
C4296      C4444   1.459       .  S
O4297     Zr4306   2.419       .  S
O4297      C4299   1.281       .  A
O4298     Zr4310   2.503       .  S
O4298      C4299   1.302       .  A
C4299      C4597   1.511       .  S
O4300     Zr4303   2.463       .  S
O4300      C4302   1.292       .  A
O4301     Zr4309   2.382       .  S
O4301      C4302   1.278       .  A
Zr4303     O4304   2.439       .  S
Zr4303     O4305   2.434   1_565  S
Zr4303     O4311   2.394       .  S
Zr4303     O4312   2.357       .  S
Zr4303     O4315   2.352       .  S
Zr4303     O4313   2.384       .  S
O4304      H4324   0.990       .  S
O4304      H4329   0.990       .  S
O4305      H4325   0.990       .  S
Zr4306     O4307   2.436       .  S
Zr4306     O4308   2.439       .  S
Zr4306     O4312   2.364       .  S
Zr4306     O4311   2.374       .  S
Zr4306     O4316   2.372       .  S
Zr4306     O4314   2.363       .  S
O4307      H4323   0.990       .  S
O4308      H4322   0.990       .  S
O4308      H4332   0.990       .  S
Zr4309     O4312   2.379       .  S
Zr4309     O4314   2.380       .  S
Zr4309     O4315   2.371       .  S
Zr4310     O4311   2.421       .  S
Zr4310     O4313   2.409       .  S
Zr4310     O4316   2.402       .  S
O4311      H4319   0.966       .  S
O4314      H4318   0.965       .  S
O4315      H4320   0.965       .  S
C4333      C4334   1.408       .  A
C4333      C4338   1.402       .  A
C4334      C4335   1.403       .  A
C4335      C4336   1.404       .  A
C4336      C4337   1.407       .  A
C4337      C4338   1.390       .  A
C4337      H4341   1.084       .  S
C4338      O4342   1.372       .  S
O4340      H4344   0.992       .  S
O4342      H4343   0.992       .  S
C4345      C4346   1.401       .  A
C4345      C4350   1.412       .  A
C4346      C4347   1.405       .  A
C4346      H4351   1.084       .  S
C4347      C4348   1.413       .  A
C4347      O4352   1.372       .  S
C4348      C4349   1.405       .  A
C4349      C4350   1.409       .  A
C4349      H4353   1.084       .  S
C4350      O4354   1.371       .  S
O4352      H4356   0.992       .  S
O4354      H4355   0.992       .  S
C4357      C4358   1.410       .  A
C4357      C4362   1.413       .  A
C4358      C4359   1.418       .  A
C4358      H4363   1.083       .  S
C4359      C4360   1.413       .  A
C4359      O4364   1.371       .  S
C4360      C4361   1.400       .  A
C4361      C4362   1.400       .  A
C4361      H4365   1.085       .  S
C4362      O4366   1.368       .  S
O4364      H4368   0.992       .  S
O4366      H4367   0.992       .  S
C4369      C4370   1.400       .  A
C4369      C4374   1.408       .  A
C4370      C5031   1.398   1_554  A
C4370      H4375   1.084       .  S
C4371      C5030   1.398       .  A
C4371      C4372   1.409       .  A
C4371      O4376   1.370       .  S
C4372      C5033   1.404       .  A
C4373      C5032   1.404   1_554  A
C4373      C4374   1.400       .  A
C4373      H4377   1.084       .  S
C4374      O4378   1.372       .  S
O4376      H4380   0.992       .  S
O4378      H4379   0.992       .  S
C4381      C4382   1.406       .  A
C4381      C4386   1.410   1_554  A
C4382      H4387   1.084       .  S
C4383      C5044   1.413       .  A
C4383      O5048   1.371       .  S
C4384      C5043   1.413       .  A
C4385      C5046   1.405       .  A
C4385      H4389   1.084       .  S
C4386      C5045   1.405       .  A
C4386      O4390   1.372   1_556  S
O4388      C5043   1.371       .  S
O4388      H5052   0.992       .  S
O4390      H4391   0.992   1_554  S
H4392      O5048   0.992       .  S
C4393      C4394   1.394       .  A
C4394      H4399   1.084       .  S
C4395      C4396   1.421       .  A
C4396      C4397   1.407       .  A
C4397      C4398   1.406       .  A
C4397      H4401   1.083       .  S
C4398      O4402   1.371       .  S
O4400      H4404   0.991       .  S
O4402      H4403   0.992       .  S
C4405      C4406   1.403       .  A
C4405      C4410   1.403       .  A
C4406      C4407   1.403       .  A
C4407      C4408   1.406       .  A
C4407      O4412   1.368       .  S
C4408      C4409   1.408       .  A
C4409      C4410   1.398       .  A
C4409      H4413   1.084       .  S
C4410      O4414   1.371       .  S
O4412      H4416   0.992       .  S
O4414      H4415   0.992       .  S
C4417      C4418   1.410       .  A
C4417      C4422   1.409       .  A
C4418      C4419   1.401       .  A
C4418      H4423   1.084       .  S
C4419      C4420   1.407       .  A
C4419      O4424   1.372       .  S
C4420      C4421   1.413       .  A
C4421      C4422   1.413       .  A
C4421      H4425   1.082       .  S
C4422      O4426   1.371       .  S
O4424      H4428   0.992       .  S
O4426      H4427   0.991       .  S
C4429      C4430   1.408       .  A
C4429      C4434   1.408       .  A
C4430      C4431   1.414       .  A
C4430      H4435   1.083       .  S
C4431      C4432   1.410       .  A
C4431      O4436   1.371       .  S
C4432      C4433   1.403       .  A
C4433      C4434   1.396       .  A
C4433      H4437   1.084       .  S
C4434      O4438   1.372       .  S
O4436      H4440   0.992       .  S
O4438      H4439   0.991       .  S
C4441      C4442   1.404       .  A
C4441      C4446   1.406       .  A
C4442      C4443   1.399       .  A
C4442      H4447   1.084       .  S
C4443      C4444   1.404       .  A
C4443      O4448   1.372       .  S
C4444      C4445   1.397       .  A
C4445      C4446   1.399       .  A
C4445      H4449   1.084       .  S
C4446      O4450   1.373   1_655  S
O4448      H4452   0.992       .  S
O4450      H4451   0.992       .  S
C4453      C5114   1.408       .  A
C4453      C4458   1.412   1_655  A
C4454      C5113   1.408   1_554  A
C4454      H4459   1.083       .  S
C4455      C4456   1.408       .  A
C4455      O4460   1.371       .  S
C4456      C4457   1.400       .  A
C4457      H4461   1.085       .  S
C4458      O4462   1.370       .  S
C4465      C4466   1.412       .  A
C4466      H4471   1.083       .  S
C4467      C4468   1.411       .  A
C4467      O4472   1.371       .  S
C4468      C4469   1.400       .  A
C4469      C4470   1.401       .  A
C4469      H4473   1.085       .  S
C4470      O4474   1.370       .  S
O4474      H4475   0.991       .  S
C4477      C5142   1.405       .  A
C4478      C4479   1.425       .  A
C4478      H4483   1.083       .  S
C4479      C5140   1.413       .  A
C4479      O4484   1.370       .  S
C4480      C5139   1.413   1_554  A
C4480      C4481   1.411       .  A
C4481      H4485   1.076       .  S
C4482      C5137   1.405   1_554  A
C4482      O4486   1.373       .  S
O4484      H4488   0.992       .  S
O4486      H4487   0.992       .  S
C4489      C4494   1.410       .  A
C4490      C4491   1.402   1_545  A
C4490      H4495   1.084   1_545  S
C4491      C4492   1.404       .  A
C4491      O4496   1.372       .  S
C4493      C4494   1.406       .  A
C4493      H4497   1.084       .  S
C4494      O4498   1.371       .  S
O4496      H4500   0.992       .  S
O4498      H4499   0.992       .  S
C4501      C4502   1.399       .  A
C4501      C4506   1.408       .  A
C4502      C4503   1.386       .  A
C4502      H4507   1.084       .  S
C4503      C4504   1.407       .  A
C4503      O4508   1.373       .  S
C4504      C4505   1.403       .  A
C4505      C4506   1.403       .  A
C4506      O4510   1.374       .  S
O4508      H4512   0.992       .  S
O4510      H4511   0.991       .  S
C4513      C4514   1.394       .  A
C4513      C4518   1.408       .  A
C4514      C4515   1.385       .  A
C4514      H4519   1.083       .  S
C4515      C4516   1.418       .  A
C4515      O4520   1.373       .  S
C4516      C4517   1.409       .  A
C4517      C4518   1.407       .  A
C4517      H4521   1.083       .  S
C4518      O4522   1.371       .  S
O4520      H4524   0.992       .  S
O4522      H4523   0.992       .  S
C4525      C4526   1.395       .  A
C4525      C4530   1.415       .  A
C4526      H4531   1.084       .  S
C4527      C4528   1.417       .  A
C4527      O4532   1.373       .  S
C4528      C4529   1.407       .  A
C4529      H4533   1.083       .  S
C4530      O4534   1.371       .  S
O4532      H4536   0.992       .  S
O4534      H4535   0.992       .  S
C4537      C4542   1.408       .  A
C4538      C4539   1.392   1_455  A
C4539      C4540   1.414       .  A
C4539      O4544   1.372       .  S
C4540      C4541   1.408       .  A
C4541      H4545   1.083       .  S
C4542      O4546   1.372       .  S
O4544      H4548   0.992       .  S
O4546      H4547   0.992       .  S
C4549      C4550   1.399       .  A
C4549      C4554   1.399       .  A
C4550      C4551   1.393       .  A
C4550      H4555   1.084       .  S
C4551      C4552   1.402       .  A
C4552      C4553   1.401       .  A
C4553      C4554   1.378       .  A
C4553      H4557   1.085       .  S
C4554      O4558   1.373       .  S
O4558      H4559   0.992       .  S
C4561      C4562   1.401       .  A
C4561      C4566   1.414       .  A
C4562      C4563   1.397       .  A
C4562      H4567   1.084       .  S
C4563      C4564   1.407       .  A
C4563      O4568   1.372       .  S
C4564      C4565   1.391       .  A
C4565      C4566   1.389       .  A
C4565      H4569   1.085       .  S
C4566      O4570   1.372       .  S
O4568      H4572   0.992       .  S
O4570      H4571   0.992       .  S
C4573      C4574   1.406       .  A
C4573      C4578   1.410       .  A
C4574      C4575   1.394       .  A
C4574      H4579   1.083       .  S
C4575      C4576   1.401       .  A
C4576      C4577   1.398       .  A
C4577      C4578   1.391       .  A
C4577      H4581   1.085       .  S
C4578      O4582   1.371       .  S
O4580      H4584   0.992       .  S
O4582      H4583   0.992       .  S
C4585      C4586   1.401       .  A
C4585      C4590   1.407       .  A
C4586      C4587   1.391       .  A
C4586      H4591   1.084       .  S
C4587      C4588   1.404       .  A
C4587      O4592   1.372       .  S
C4588      C4589   1.402       .  A
C4589      C4590   1.400       .  A
C4589      H4593   1.084       .  S
C4590      O4594   1.372       .  S
O4592      H4596   0.992       .  S
O4594      H4595   0.992       .  S
C4597      C4598   1.421       .  A
C4597      C5262   1.408   1_554  A
C4598      C4599   1.411       .  A
C4598      H4603   1.083       .  S
C4599      C5260   1.402   1_554  A
C4599      O4604   1.371       .  S
C4600      C5259   1.402       .  A
C4600      C4601   1.417       .  A
C4601      C4602   1.409       .  A
C4601      H4605   1.084       .  S
C4602      C5257   1.408       .  A
C4602      O4606   1.371       .  S
O4604      H4608   0.992       .  S
O4606      H4607   0.992       .  S
C4609      C4610   1.404       .  A
C4609      C4614   1.415       .  A
C4610      C4611   1.391       .  A
C4610      H4615   1.083       .  S
C4611      C4612   1.412       .  A
C4611      O4616   1.372       .  S
C4612      C4613   1.404       .  A
C4613      C4614   1.402       .  A
C4613      H4617   1.083       .  S
C4614      O4618   1.371       .  S
O4616      H4620   0.992       .  S
O4618      H4619   0.992       .  S
O4621     Zr4633   2.441       .  S
O4621      C4623   1.287       .  A
O4622     Zr4659   2.407       .  S
O4622      C4623   1.285       .  A
C4623      C5269   1.485       .  S
O4624     Zr4636   2.375       .  S
O4624      C4626   1.275       .  A
O4625     Zr4660   2.528       .  S
O4625      C4626   1.306       .  A
C4626      C5260   1.496       .  S
O4627     Zr4636   2.376       .  S
O4627      C4629   1.275       .  A
O4628     Zr4659   2.398       .  S
O4628      C4629   1.280       .  A
C4629      C5209   1.426       .  S
O4630     Zr4633   2.417       .  S
O4630      C4632   1.284       .  A
O4631     Zr4660   2.425       .  S
O4631      C4632   1.288       .  A
C4632      C5248   1.456       .  S
Zr4633     O4634   2.434       .  S
Zr4633     O4635   2.436       .  S
Zr4633     O4639   2.359       .  S
Zr4633     O4640   2.370       .  S
Zr4633     O4663   2.360       .  S
Zr4633     O4665   2.366       .  S
O4634      H4677   0.990       .  S
O4635      H4676   0.990       .  S
O4635      H4680   0.990       .  S
Zr4636     O4637   2.437       .  S
Zr4636     O4638   2.435       .  S
Zr4636     O4640   2.359       .  S
Zr4636     O4639   2.361       .  S
Zr4636     O4664   2.350       .  S
Zr4636     O4666   2.370       .  S
O4637      H4678   0.990       .  S
O4637      H4681   0.990       .  S
O4638      H4671   0.990       .  S
O4639     Zr4659   2.371       .  S
O4640     Zr4660   2.391       .  S
O4640      H4667   0.965       .  S
O4641     Zr4653   2.401       .  S
O4641      C4643   1.282       .  A
O4642     Zr4660   2.442       .  S
O4642      C4643   1.293       .  A
C4643      C5221   1.465       .  S
O4644     Zr4656   2.420       .  S
O4644      C4646   1.278       .  A
O4645     Zr4659   2.391       .  S
O4645      C4646   1.278       .  A
O4647     Zr4656   2.403       .  S
O4647      C4649   1.271       .  A
O4648     Zr4660   2.495       .  S
O4648      C4649   1.298       .  A
C4649      C5185   1.474       .  S
O4650     Zr4653   2.448       .  S
O4650      C4652   1.289       .  A
O4651     Zr4659   2.398       .  S
O4651      C4652   1.282       .  A
C4652      C5200   1.483       .  S
Zr4653     O4654   2.435       .  S
Zr4653     O4655   2.434       .  S
Zr4653     O4661   2.371       .  S
Zr4653     O4662   2.349       .  S
Zr4653     O4665   2.355       .  S
Zr4653     O4663   2.368       .  S
O4654      H4674   0.990       .  S
O4654      H4679   0.990       .  S
O4655      H4675   0.990       .  S
Zr4656     O4657   2.434   1_655  S
Zr4656     O4658   2.438       .  S
Zr4656     O4662   2.368       .  S
Zr4656     O4661   2.375       .  S
Zr4656     O4666   2.384       .  S
Zr4656     O4664   2.358       .  S
O4658      H4672   0.989       .  S
O4658      H4682   0.990       .  S
Zr4659     O4662   2.378       .  S
Zr4659     O4664   2.391       .  S
Zr4659     O4665   2.373       .  S
Zr4660     O4661   2.407       .  S
Zr4660     O4663   2.408       .  S
Zr4660     O4666   2.381       .  S
O4661      H4669   0.964       .  S
O4664      H4668   0.966       .  S
O4665      H4670   0.966       .  S
O4683     Zr4695   2.408       .  S
O4683      C4685   1.281       .  A
O4684     Zr4721   2.422       .  S
O4684      C4685   1.287       .  A
C4685      C5224   1.446       .  S
O4686     Zr4698   2.416       .  S
O4686      C4688   1.284       .  A
O4687     Zr4722   2.414       .  S
O4687      C4688   1.284       .  A
O4689     Zr4698   2.403       .  S
O4689      C4691   1.280       .  A
O4690     Zr4721   2.489       .  S
O4690      C4691   1.298       .  A
C4691      C5128   1.482       .  S
O4692     Zr4695   2.443       .  S
O4692      C4694   1.288       .  A
O4693     Zr4722   2.452       .  S
O4693      C4694   1.293       .  A
C4694      C5113   1.487       .  S
Zr4695     O4696   2.434       .  S
Zr4695     O4697   2.434       .  S
Zr4695     O4701   2.392       .  S
Zr4695     O4702   2.354       .  S
Zr4695     O4725   2.380       .  S
Zr4695     O4727   2.368       .  S
O4696      H4739   0.990       .  S
O4697      H4738   0.990       .  S
O4697      H4742   0.990       .  S
Zr4698     O4699   2.435   1_655  S
Zr4698     O4700   2.434       .  S
Zr4698     O4702   2.341       .  S
Zr4698     O4701   2.366       .  S
Zr4698     O4726   2.364       .  S
Zr4698     O4728   2.360       .  S
O4699      H4740   0.990       .  S
O4700      H4733   0.990       .  S
O4701     Zr4721   2.388       .  S
O4702     Zr4722   2.380       .  S
O4702      H4729   0.963       .  S
O4703     Zr4715   2.491       .  S
O4703      C4705   1.294       .  A
O4704     Zr4722   2.447       .  S
O4704      C4705   1.292       .  A
C4705      C5137   1.506       .  S
O4706     Zr4718   2.410       .  S
O4706      C4708   1.276       .  A
O4707     Zr4721   2.466       .  S
O4707      C4708   1.290       .  A
C4708      C5149   1.484       .  S
O4709     Zr4718   2.368       .  S
O4709      C4711   1.275       .  A
O4710     Zr4722   2.408       .  S
O4710      C4711   1.282       .  A
O4712     Zr4715   2.450       .  S
O4712      C4714   1.287       .  A
O4713     Zr4721   2.412       .  S
O4713      C4714   1.282       .  A
C4714      C5173   1.469       .  S
Zr4715     O4716   2.439       .  S
Zr4715     O4717   2.435       .  S
Zr4715     O4723   2.366       .  S
Zr4715     O4724   2.379       .  S
Zr4715     O4727   2.377       .  S
Zr4715     O4725   2.382       .  S
O4716      H4736   0.990       .  S
O4716      H4741   0.990       .  S
O4717      H4737   0.990       .  S
Zr4718     O4720   2.436       .  S
Zr4718     O4724   2.339       .  S
Zr4718     O4723   2.368       .  S
Zr4718     O4728   2.363       .  S
Zr4718     O4726   2.353       .  S
O4720      H4734   0.990       .  S
O4720      H4744   0.990       .  S
Zr4721     O4724   2.399       .  S
Zr4721     O4726   2.378       .  S
Zr4721     O4727   2.427       .  S
Zr4722     O4723   2.395       .  S
Zr4722     O4725   2.384       .  S
Zr4722     O4728   2.390       .  S
O4723      H4731   0.965       .  S
O4726      H4730   0.966       .  S
O4727      H4732   0.966       .  S
O4745     Zr4757   2.408       .  S
O4745      C4747   1.281       .  A
O4746     Zr4783   2.438       .  S
O4746      C4747   1.287       .  A
O4748     Zr4760   2.402       .  S
O4748      C4750   1.281       .  A
O4749     Zr4784   2.495       .  S
O4749      C4750   1.300       .  A
C4750      C5077   1.492       .  S
O4751     Zr4760   2.438       .  S
O4751      C4753   1.287       .  A
O4752     Zr4783   2.409       .  S
O4752      C4753   1.285       .  A
C4753      C5197   1.473       .  S
O4754     Zr4757   2.378       .  S
O4754      C4756   1.276       .  A
O4755     Zr4784   2.499       .  S
O4755      C4756   1.299       .  A
C4756      C5188   1.492       .  S
Zr4757     O4759   2.436       .  S
Zr4757     O4763   2.346       .  S
Zr4757     O4764   2.369       .  S
Zr4757     O4787   2.365       .  S
Zr4757     O4789   2.359       .  S
O4758      H4801   0.990       .  S
O4759      H4800   0.990       .  S
O4759      H4804   0.990       .  S
Zr4760     O4761   2.438       .  S
Zr4760     O4762   2.434       .  S
Zr4760     O4764   2.381       .  S
Zr4760     O4763   2.351       .  S
Zr4760     O4788   2.366       .  S
Zr4760     O4790   2.368       .  S
O4761      H4802   0.990       .  S
O4761      H4805   0.990       .  S
O4762      H4795   0.990       .  S
O4763     Zr4783   2.369       .  S
O4764     Zr4784   2.402       .  S
O4764      H4791   0.966       .  S
O4765     Zr4777   2.392       .  S
O4765      C4767   1.278       .  A
O4766     Zr4784   2.499       .  S
O4766      C4767   1.301       .  A
C4767      C5041   1.480       .  S
O4768     Zr4780   2.454       .  S
O4768      C4770   1.290       .  A
O4769     Zr4783   2.423       .  S
O4769      C4770   1.287       .  A
C4770      C5053   1.470       .  S
O4771     Zr4780   2.442       .  S
O4771      C4773   1.289       .  A
O4772     Zr4784   2.454       .  S
O4772      C4773   1.292       .  A
C4773      C5089   1.483       .  S
O4774     Zr4777   2.458       .  S
O4774      C4776   1.291       .  A
O4775     Zr4783   2.411       .  S
O4775      C4776   1.283       .  A
Zr4777     O4778   2.436   1_565  S
Zr4777     O4779   2.436       .  S
Zr4777     O4785   2.382       .  S
Zr4777     O4786   2.345       .  S
Zr4777     O4789   2.355       .  S
Zr4777     O4787   2.387       .  S
O4778      H4798   0.990   1_545  S
O4779      H4799   0.990       .  S
Zr4780     O4781   2.434       .  S
Zr4780     O4782   2.434       .  S
Zr4780     O4786   2.365       .  S
Zr4780     O4785   2.377       .  S
Zr4780     O4790   2.368       .  S
Zr4780     O4788   2.381       .  S
O4781      H4797   0.990       .  S
O4782      H4796   0.990       .  S
O4782      H4806   0.990       .  S
Zr4783     O4786   2.377       .  S
Zr4783     O4788   2.390       .  S
Zr4783     O4789   2.375       .  S
Zr4784     O4785   2.415       .  S
Zr4784     O4787   2.397       .  S
Zr4784     O4790   2.401       .  S
O4785      H4793   0.966       .  S
O4788      H4792   0.966       .  S
O4789      H4794   0.966       .  S
O4807     Zr4819   2.408       .  S
O4807      C4809   1.281       .  A
O4808     Zr4845   2.493       .  S
O4808      C4809   1.299       .  A
C4809      C5020   1.485       .  S
O4810     Zr4822   2.422       .  S
O4810      C4812   1.283       .  A
O4811     Zr4846   2.451       .  S
O4811      C4812   1.293       .  A
C4812      C5032   1.474       .  S
O4813     Zr4822   2.411       .  S
O4813      C4815   1.283       .  A
O4814     Zr4845   2.428       .  S
O4814      C4815   1.288       .  A
C4815      C5245   1.459       .  S
O4816     Zr4819   2.428       .  S
O4816      C4818   1.288       .  A
O4817     Zr4846   2.404       .  S
O4817      C4818   1.282       .  A
C4818      C5161   1.464       .  S
Zr4819     O4820   2.434       .  S
Zr4819     O4821   2.435       .  S
Zr4819     O4825   2.370       .  S
Zr4819     O4826   2.348       .  S
Zr4819     O4849   2.356       .  S
Zr4819     O4851   2.371       .  S
O4820      H4863   0.990       .  S
O4821      H4862   0.990       .  S
O4821      H4866   0.990       .  S
Zr4822     O4823   2.437       .  S
Zr4822     O4824   2.435       .  S
Zr4822     O4826   2.355       .  S
Zr4822     O4825   2.378       .  S
Zr4822     O4850   2.358       .  S
Zr4822     O4852   2.385       .  S
O4823      H4864   0.990       .  S
O4823      H4867   0.990       .  S
O4824      H4857   0.990       .  S
O4825     Zr4845   2.388       .  S
O4826     Zr4846   2.386       .  S
O4826      H4853   0.964       .  S
O4827     Zr4839   2.404       .  S
O4827      C4829   1.279       .  A
O4828     Zr4846   2.409       .  S
O4828      C4829   1.282       .  A
O4830     Zr4842   2.413       .  S
O4830      C4832   1.283       .  A
O4831     Zr4845   2.440       .  S
O4831      C4832   1.290       .  A
C4832      C5176   1.485       .  S
O4833     Zr4842   2.457       .  S
O4833      C4835   1.290       .  A
O4834     Zr4846   2.456       .  S
O4834      C4835   1.294       .  A
C4835      C5044   1.497       .  S
O4836     Zr4839   2.412       .  S
O4836      C4838   1.276       .  A
O4837     Zr4845   2.460       .  S
O4837      C4838   1.289       .  A
C4838      C5056   1.492       .  S
Zr4839     O4841   2.435       .  S
Zr4839     O4847   2.355       .  S
Zr4839     O4848   2.354       .  S
Zr4839     O4851   2.361       .  S
Zr4839     O4849   2.364       .  S
O4840      H4860   0.990       .  S
O4840      H4865   0.990       .  S
O4841      H4861   0.990       .  S
Zr4842     O4843   2.433       .  S
Zr4842     O4844   2.434       .  S
Zr4842     O4848   2.374       .  S
Zr4842     O4847   2.361       .  S
Zr4842     O4852   2.368       .  S
Zr4842     O4850   2.374       .  S
O4843      H4859   0.990       .  S
O4844      H4858   0.990       .  S
O4844      H4868   0.990       .  S
Zr4845     O4848   2.395       .  S
Zr4845     O4850   2.411       .  S
Zr4845     O4851   2.392       .  S
Zr4846     O4847   2.385       .  S
Zr4846     O4849   2.392       .  S
Zr4846     O4852   2.384       .  S
O4847      H4855   0.964       .  S
O4850      H4854   0.966       .  S
O4851      H4856   0.966       .  S
O4869     Zr4881   2.481       .  S
O4869      C4871   1.295       .  A
O4870     Zr4907   2.443       .  S
O4870      C4871   1.293       .  A
C4871      C5125   1.501       .  S
O4872     Zr4884   2.381       .  S
O4872      C4874   1.275       .  A
O4873     Zr4908   2.470       .  S
O4873      C4874   1.293       .  A
C4874      C5116   1.466       .  S
O4875     Zr4884   2.382       .  S
O4875      C4877   1.278       .  A
O4876     Zr4907   2.454       .  S
O4876      C4877   1.291       .  A
O4878     Zr4881   2.487       .  S
O4878      C4880   1.298       .  A
O4879     Zr4908   2.425       .  S
O4879      C4880   1.286       .  A
C4880      C5080   1.495       .  S
Zr4881     O4882   2.433       .  S
Zr4881     O4883   2.434       .  S
Zr4881     O4887   2.369       .  S
Zr4881     O4888   2.383       .  S
Zr4881     O4911   2.374       .  S
Zr4881     O4913   2.395       .  S
O4882      H4925   0.990       .  S
O4883      H4924   0.990       .  S
O4883      H4928   0.990       .  S
Zr4884     O4886   2.435       .  S
Zr4884     O4888   2.359       .  S
Zr4884     O4887   2.346       .  S
Zr4884     O4912   2.361       .  S
Zr4884     O4914   2.361       .  S
O4885      H4926   0.990       .  S
O4885      H4929   0.990       .  S
O4886      H4919   0.990       .  S
O4887     Zr4907   2.381       .  S
O4888     Zr4908   2.389       .  S
O4888      H4915   0.966       .  S
O4889     Zr4901   2.498       .  S
O4889      C4891   1.299       .  A
O4890     Zr4908   2.411       .  S
O4890      C4891   1.284       .  A
C4891      C5005   1.486       .  S
O4892     Zr4904   2.399       .  S
O4892      C4894   1.280       .  A
O4893     Zr4907   2.464       .  S
O4893      C4894   1.293       .  A
C4894      C5068   1.479       .  S
O4895     Zr4904   2.381       .  S
O4895      C4897   1.276       .  A
O4896     Zr4908   2.458       .  S
O4896      C4897   1.291       .  A
C4897      C5029   1.459       .  S
O4898     Zr4901   2.496       .  S
O4898      C4900   1.298       .  A
O4899     Zr4907   2.434       .  S
O4899      C4900   1.291       .  A
C4900      C5017   1.502       .  S
Zr4901     O4902   2.437       .  S
Zr4901     O4903   2.434       .  S
Zr4901     O4909   2.384       .  S
Zr4901     O4910   2.369       .  S
Zr4901     O4913   2.396       .  S
Zr4901     O4911   2.381       .  S
O4902      H4922   0.990       .  S
O4902      H4927   0.990       .  S
O4903      H4923   0.990       .  S
Zr4904     O4905   2.434       .  S
Zr4904     O4906   2.435       .  S
Zr4904     O4910   2.345       .  S
Zr4904     O4909   2.363       .  S
Zr4904     O4914   2.367       .  S
Zr4904     O4912   2.360       .  S
O4905      H4921   0.990       .  S
O4906      H4920   0.990       .  S
O4906      H4930   0.990       .  S
Zr4907     O4910   2.381       .  S
Zr4907     O4912   2.375       .  S
Zr4907     O4913   2.418       .  S
Zr4908     O4909   2.400       .  S
Zr4908     O4911   2.406       .  S
Zr4908     O4914   2.372       .  S
O4909      H4917   0.966       .  S
O4912      H4916   0.966       .  S
O4913      H4918   0.966       .  S
O4931     Zr4943   2.457       .  S
O4931      C4933   1.290       .  A
O4932     Zr4969   2.433       .  S
O4932      C4933   1.288       .  A
C4933      C5152   1.479       .  S
O4934     Zr4946   2.405       .  S
O4934      C4936   1.281       .  A
O4935     Zr4970   2.492       .  S
O4935      C4936   1.300       .  A
C4936      C5008   1.483       .  S
O4937     Zr4946   2.449       .  S
O4937      C4939   1.289       .  A
O4938     Zr4969   2.400       .  S
O4938      C4939   1.282       .  A
C4939      C5272   1.479       .  S
O4940     Zr4943   2.433       .  S
O4940      C4942   1.288       .  A
O4941     Zr4970   2.466       .  S
O4941      C4942   1.295       .  A
C4942      C5092   1.482       .  S
Zr4943     O4944   2.434       .  S
Zr4943     O4945   2.435       .  S
Zr4943     O4949   2.377       .  S
Zr4943     O4950   2.370       .  S
Zr4943     O4973   2.370       .  S
Zr4943     O4975   2.363       .  S
O4944      H4987   0.990       .  S
O4945      H4986   0.990       .  S
O4945      H4990   0.990       .  S
Zr4946     O4947   2.435       .  S
Zr4946     O4948   2.434       .  S
Zr4946     O4950   2.370       .  S
Zr4946     O4949   2.371       .  S
Zr4946     O4974   2.353       .  S
Zr4946     O4976   2.378       .  S
O4947      H4988   0.990       .  S
O4947      H4991   0.990       .  S
O4948      H4981   0.990       .  S
O4949     Zr4969   2.374       .  S
O4950     Zr4970   2.411       .  S
O4950      H4977   0.965       .  S
O4951     Zr4963   2.413       .  S
O4951      C4953   1.275       .  A
O4952     Zr4970   2.523       .  S
O4952      C4953   1.299       .  A
C4953      C5140   1.514       .  S
O4954     Zr4966   2.443       .  S
O4954      C4956   1.287       .  A
O4955     Zr4969   2.407       .  S
O4955      C4956   1.282       .  A
C4956      C5104   1.459       .  S
O4957     Zr4966   2.419       .  S
O4957      C4959   1.281       .  A
O4958     Zr4970   2.503       .  S
O4958      C4959   1.302       .  A
C4959      C5257   1.511       .  S
O4960     Zr4963   2.463       .  S
O4960      C4962   1.292       .  A
O4961     Zr4969   2.382       .  S
O4961      C4962   1.278       .  A
Zr4963     O4964   2.439       .  S
Zr4963     O4965   2.434   1_565  S
Zr4963     O4971   2.394       .  S
Zr4963     O4972   2.357       .  S
Zr4963     O4975   2.352       .  S
Zr4963     O4973   2.384       .  S
O4964      H4984   0.990       .  S
O4964      H4989   0.990       .  S
O4965      H4985   0.990       .  S
Zr4966     O4967   2.436       .  S
Zr4966     O4968   2.439       .  S
Zr4966     O4972   2.364       .  S
Zr4966     O4971   2.374       .  S
Zr4966     O4976   2.372       .  S
Zr4966     O4974   2.363       .  S
O4967      H4983   0.990       .  S
O4968      H4982   0.990       .  S
O4968      H4992   0.990       .  S
Zr4969     O4972   2.379       .  S
Zr4969     O4974   2.380       .  S
Zr4969     O4975   2.371       .  S
Zr4970     O4971   2.421       .  S
Zr4970     O4973   2.409       .  S
Zr4970     O4976   2.402       .  S
O4971      H4979   0.966       .  S
O4974      H4978   0.965       .  S
O4975      H4980   0.965       .  S
C4993      C4994   1.408       .  A
C4993      C4998   1.402       .  A
C4994      C4995   1.403       .  A
C4995      C4996   1.404       .  A
C4996      C4997   1.407       .  A
C4997      C4998   1.390       .  A
C4997      H5001   1.084       .  S
C4998      O5002   1.372       .  S
O5000      H5004   0.992       .  S
O5002      H5003   0.992       .  S
C5005      C5006   1.401       .  A
C5005      C5010   1.412       .  A
C5006      C5007   1.405       .  A
C5006      H5011   1.084       .  S
C5007      C5008   1.413       .  A
C5007      O5012   1.372       .  S
C5008      C5009   1.405       .  A
C5009      C5010   1.409       .  A
C5009      H5013   1.084       .  S
C5010      O5014   1.371       .  S
O5012      H5016   0.992       .  S
O5014      H5015   0.992       .  S
C5017      C5018   1.410       .  A
C5017      C5022   1.413       .  A
C5018      C5019   1.418       .  A
C5018      H5023   1.083       .  S
C5019      C5020   1.413       .  A
C5019      O5024   1.371       .  S
C5020      C5021   1.400       .  A
C5021      C5022   1.400       .  A
C5021      H5025   1.085       .  S
C5022      O5026   1.368       .  S
O5024      H5028   0.992       .  S
O5026      H5027   0.992       .  S
C5029      C5030   1.400       .  A
C5029      C5034   1.408       .  A
C5030      H5035   1.084       .  S
C5031      C5032   1.409       .  A
C5031      O5036   1.370       .  S
C5033      C5034   1.400       .  A
C5033      H5037   1.084       .  S
C5034      O5038   1.372       .  S
O5036      H5040   0.992       .  S
O5038      H5039   0.992       .  S
C5041      C5042   1.406       .  A
C5041      C5046   1.410       .  A
C5042      H5047   1.084       .  S
C5045      H5049   1.084       .  S
C5046      O5050   1.372       .  S
O5050      H5051   0.992       .  S
C5053      C5054   1.394       .  A
C5054      H5059   1.084       .  S
C5055      C5056   1.421       .  A
C5056      C5057   1.407       .  A
C5057      C5058   1.406       .  A
C5057      H5061   1.083       .  S
C5058      O5062   1.371       .  S
O5060      H5064   0.991       .  S
O5062      H5063   0.992       .  S
C5065      C5066   1.403       .  A
C5065      C5070   1.403       .  A
C5066      C5067   1.403       .  A
C5067      C5068   1.406       .  A
C5067      O5072   1.368       .  S
C5068      C5069   1.408       .  A
C5069      C5070   1.398       .  A
C5069      H5073   1.084       .  S
C5070      O5074   1.371       .  S
O5072      H5076   0.992       .  S
O5074      H5075   0.992       .  S
C5077      C5078   1.410       .  A
C5077      C5082   1.409       .  A
C5078      C5079   1.401       .  A
C5078      H5083   1.084       .  S
C5079      C5080   1.407       .  A
C5079      O5084   1.372       .  S
C5080      C5081   1.413       .  A
C5081      C5082   1.413       .  A
C5081      H5085   1.082       .  S
C5082      O5086   1.371       .  S
O5084      H5088   0.992       .  S
O5086      H5087   0.991       .  S
C5089      C5090   1.408       .  A
C5089      C5094   1.408       .  A
C5090      C5091   1.414       .  A
C5090      H5095   1.083       .  S
C5091      C5092   1.410       .  A
C5091      O5096   1.371       .  S
C5092      C5093   1.403       .  A
C5093      C5094   1.396       .  A
C5093      H5097   1.084       .  S
C5094      O5098   1.372       .  S
O5096      H5100   0.992       .  S
O5098      H5099   0.991       .  S
C5101      C5102   1.404       .  A
C5101      C5106   1.406       .  A
C5102      C5103   1.399       .  A
C5102      H5107   1.084       .  S
C5103      C5104   1.404       .  A
C5103      O5108   1.372       .  S
C5104      C5105   1.397       .  A
C5105      C5106   1.399       .  A
C5105      H5109   1.084       .  S
C5106      O5110   1.373   1_655  S
O5108      H5112   0.992       .  S
O5110      H5111   0.992       .  S
C5113      C5118   1.412   1_655  A
C5114      H5119   1.083       .  S
C5115      C5116   1.408       .  A
C5115      O5120   1.371       .  S
C5116      C5117   1.400       .  A
C5117      H5121   1.085       .  S
C5118      O5122   1.370       .  S
C5125      C5126   1.412       .  A
C5126      H5131   1.083       .  S
C5127      C5128   1.411       .  A
C5127      O5132   1.371       .  S
C5128      C5129   1.400       .  A
C5129      C5130   1.401       .  A
C5129      H5133   1.085       .  S
C5130      O5134   1.370       .  S
O5134      H5135   0.991       .  S
C5138      C5139   1.425       .  A
C5138      H5143   1.083       .  S
C5139      O5144   1.370       .  S
C5140      C5141   1.411       .  A
C5141      H5145   1.076       .  S
C5142      O5146   1.373       .  S
O5144      H5148   0.992       .  S
O5146      H5147   0.992       .  S
C5149      C5154   1.410       .  A
C5150      C5151   1.402   1_545  A
C5150      H5155   1.084   1_545  S
C5151      C5152   1.404       .  A
C5151      O5156   1.372       .  S
C5153      C5154   1.406       .  A
C5153      H5157   1.084       .  S
C5154      O5158   1.371       .  S
O5156      H5160   0.992       .  S
O5158      H5159   0.992       .  S
C5161      C5162   1.399       .  A
C5161      C5166   1.408       .  A
C5162      C5163   1.386       .  A
C5162      H5167   1.084       .  S
C5163      C5164   1.407       .  A
C5163      O5168   1.373       .  S
C5164      C5165   1.403       .  A
C5165      C5166   1.403       .  A
C5166      O5170   1.374       .  S
O5168      H5172   0.992       .  S
O5170      H5171   0.991       .  S
C5173      C5174   1.394       .  A
C5173      C5178   1.408       .  A
C5174      C5175   1.385       .  A
C5174      H5179   1.083       .  S
C5175      C5176   1.418       .  A
C5175      O5180   1.373       .  S
C5176      C5177   1.409       .  A
C5177      C5178   1.407       .  A
C5177      H5181   1.083       .  S
C5178      O5182   1.371       .  S
O5180      H5184   0.992       .  S
O5182      H5183   0.992       .  S
C5185      C5186   1.395       .  A
C5185      C5190   1.415       .  A
C5186      H5191   1.084       .  S
C5187      C5188   1.417       .  A
C5187      O5192   1.373       .  S
C5188      C5189   1.407       .  A
C5189      H5193   1.083       .  S
C5190      O5194   1.371       .  S
O5192      H5196   0.992       .  S
O5194      H5195   0.992       .  S
C5197      C5202   1.408       .  A
C5198      C5199   1.392   1_455  A
C5199      C5200   1.414       .  A
C5199      O5204   1.372       .  S
C5200      C5201   1.408       .  A
C5201      H5205   1.083       .  S
C5202      O5206   1.372       .  S
O5204      H5208   0.992       .  S
O5206      H5207   0.992       .  S
C5209      C5210   1.399       .  A
C5209      C5214   1.399       .  A
C5210      C5211   1.393       .  A
C5210      H5215   1.084       .  S
C5211      C5212   1.402       .  A
C5212      C5213   1.401       .  A
C5213      C5214   1.378       .  A
C5213      H5217   1.085       .  S
C5214      O5218   1.373       .  S
O5218      H5219   0.992       .  S
C5221      C5222   1.401       .  A
C5221      C5226   1.414       .  A
C5222      C5223   1.397       .  A
C5222      H5227   1.084       .  S
C5223      C5224   1.407       .  A
C5223      O5228   1.372       .  S
C5224      C5225   1.391       .  A
C5225      C5226   1.389       .  A
C5225      H5229   1.085       .  S
C5226      O5230   1.372       .  S
O5228      H5232   0.992       .  S
O5230      H5231   0.992       .  S
C5233      C5234   1.406       .  A
C5233      C5238   1.410       .  A
C5234      C5235   1.394       .  A
C5234      H5239   1.083       .  S
C5235      C5236   1.401       .  A
C5236      C5237   1.398       .  A
C5237      C5238   1.391       .  A
C5237      H5241   1.085       .  S
C5238      O5242   1.371       .  S
O5240      H5244   0.992       .  S
O5242      H5243   0.992       .  S
C5245      C5246   1.401       .  A
C5245      C5250   1.407       .  A
C5246      C5247   1.391       .  A
C5246      H5251   1.084       .  S
C5247      C5248   1.404       .  A
C5247      O5252   1.372       .  S
C5248      C5249   1.402       .  A
C5249      C5250   1.400       .  A
C5249      H5253   1.084       .  S
C5250      O5254   1.372       .  S
O5252      H5256   0.992       .  S
O5254      H5255   0.992       .  S
C5257      C5258   1.421       .  A
C5258      C5259   1.411       .  A
C5258      H5263   1.083       .  S
C5259      O5264   1.371       .  S
C5260      C5261   1.417       .  A
C5261      C5262   1.409       .  A
C5261      H5265   1.084       .  S
C5262      O5266   1.371       .  S
O5264      H5268   0.992       .  S
O5266      H5267   0.992       .  S
C5269      C5270   1.404       .  A
C5269      C5274   1.415       .  A
C5270      C5271   1.391       .  A
C5270      H5275   1.083       .  S
C5271      C5272   1.412       .  A
C5271      O5276   1.372       .  S
C5272      C5273   1.404       .  A
C5273      C5274   1.402       .  A
C5273      H5277   1.083       .  S
C5274      O5278   1.371       .  S
O5276      H5280   0.992       .  S
O5278      H5279   0.992       .  S
