geometry optimzed in LAMMPS
_audit_creation_date              2020-11-30 
_audit_creation_method            'lammps2cif' 
_symmetry_space_group_name_H-M    'P1' 
_symmetry_Int_Tables_number       1 
_symmetry_cell_setting            triclinic 
loop_ 
_symmetry_equiv_pos_as_xyz 
  x,y,z 
_cell_length_a                    27.207125599373484 
_cell_length_b                    27.211986247969485 
_cell_length_c                    27.123583472781522 
_cell_angle_alpha                 89.9543565453709 
_cell_angle_beta                  90.0200926045607 
_cell_angle_gamma                 90.0011668222035 
loop_ 
_atom_site_label 
_atom_site_type_symbol 
_atom_site_fract_x 
_atom_site_fract_y 
_atom_site_fract_z 
_atom_site_charge 
C1          C  0.85587843  0.52877747  0.79486013     0.05850
C2          C  0.81934777  0.55246566  0.82347394     0.05850
C3          C  0.79241205  0.52360772  0.85738048     0.05850
C4          C  0.79468760  0.47174512  0.85561282     0.05850
C5          C  0.82417842  0.44801321  0.81994618     0.05850
C6          C  0.85870593  0.47679060  0.79377333     0.05850
C7          C  0.78135050  0.26721587  0.71149560     0.06690
C8          C  0.79509517  0.30831507  0.73977351    -0.09460
C9          C  0.76805268  0.32214300  0.78185228     0.04190
C10         C  0.72719585  0.29365536  0.79584061    -0.07990
C11         C  0.71275134  0.25233037  0.76806383     0.06680
C12         C  0.74033767  0.23924532  0.72625999    -0.07410
H13         H  0.82460058  0.33161922  0.72661472     0.12280
H14         H  0.70451442  0.30610722  0.82617940     0.09810
H15         H  0.72732159  0.20951308  0.70315190     0.09650
C16         C  0.50739050  0.23916587  0.85761872     0.05850
C17         C  0.55936433  0.24040905  0.85966552     0.05850
C18         C  0.58773181  0.21363575  0.82527032     0.05850
C19         C  0.56359085  0.17786747  0.79625506     0.05850
C20         C  0.51172879  0.17551233  0.79549571     0.05850
C21         C  0.48324188  0.20960850  0.82225185     0.05850
C22         C  0.27279246  0.52788784  0.85716903     0.05850
C23         C  0.24417241  0.55187814  0.82117275     0.05850
C24         C  0.21178303  0.52291869  0.79272922     0.05850
C25         C  0.21643407  0.47113774  0.79147291     0.05850
C26         C  0.25295442  0.44804597  0.82050521     0.05850
C27         C  0.27626794  0.47624609  0.85727288     0.05850
C28         C  0.28125307  0.31322902  0.77936454     0.06690
C29         C  0.32610478  0.30147253  0.80262785    -0.09460
C30         C  0.35494837  0.26189360  0.78655941     0.04190
C31         C  0.33816340  0.23307036  0.74680173    -0.07990
C32         C  0.29373644  0.24441348  0.72254314     0.06680
C33         C  0.26481285  0.28370429  0.74024016    -0.07410
H34         H  0.33923763  0.32336263  0.83324313     0.12280
H35         H  0.36120606  0.20392857  0.73244630     0.09810
H36         H  0.23018474  0.29257895  0.72265914     0.09650
C37         C  0.51083754  0.75923801  0.85938313     0.05850
C38         C  0.56280683  0.75957999  0.85617193     0.05850
C39         C  0.58604862  0.78782456  0.81905056     0.05850
C40         C  0.55757521  0.82367212  0.79447916     0.05850
C41         C  0.50571318  0.82232695  0.79680088     0.05850
C42         C  0.48187721  0.78627438  0.82568170     0.05850
C43         C  0.28084000  0.73895248  0.72098662     0.06690
C44         C  0.26793599  0.69689556  0.74819119    -0.09460
C45         C  0.29862902  0.67932343  0.78631870     0.04190
C46         C  0.34167571  0.70567266  0.79808809    -0.07990
C47         C  0.35459975  0.74863608  0.77214176     0.06680
C48         C  0.32371667  0.76511148  0.73413508    -0.07410
H49         H  0.23622403  0.67577479  0.73666678     0.12280
H50         H  0.36666173  0.69088447  0.82545830     0.09810
H51         H  0.33408834  0.79788752  0.71398447     0.09650
C52         C  0.55559950  0.82182199  0.27832507     0.05850
C53         C  0.50401308  0.82233861  0.27314396     0.05850
C54         C  0.48056678  0.78672202  0.24365487     0.05850
C55         C  0.51006629  0.75889061  0.21117912     0.05850
C56         C  0.56188732  0.75891410  0.21556014     0.05850
C57         C  0.58438701  0.78643095  0.25356895     0.05850
C58         C  0.27445005  0.82278804  0.56135571     0.05850
C59         C  0.25198540  0.78383447  0.58692109     0.05850
C60         C  0.21801585  0.75414357  0.56090266     0.05850
C61         C  0.21608960  0.75661848  0.50861077     0.05850
C62         C  0.24839150  0.78807685  0.48254393     0.05850
C63         C  0.27366620  0.82429761  0.50961187     0.05850
C64         C  0.28460314  0.73580387  0.35465660     0.06690
C65         C  0.32712316  0.76218760  0.34143935    -0.09460
C66         C  0.35304243  0.75114183  0.29785420     0.04190
C67         C  0.33531250  0.71338099  0.26688238    -0.07990
C68         C  0.29356662  0.68584459  0.28009166     0.06680
C69         C  0.26789029  0.69830078  0.32353059    -0.07410
H70         H  0.34197835  0.78924488  0.36668243     0.12280
H71         H  0.35611100  0.70236966  0.23471632     0.09810
H72         H  0.23533717  0.67800678  0.33420477     0.09650
C73         C  0.27975210  0.52653109  0.21744326     0.05850
C74         C  0.24928139  0.55209125  0.25089081     0.05850
C75         C  0.21119894  0.52569810  0.27358207     0.05850
C76         C  0.21200390  0.47419797  0.27417697     0.05850
C77         C  0.25050883  0.44822224  0.25147197     0.05850
C78         C  0.28066063  0.47427312  0.21781409     0.05850
C79         C  0.51144621  0.23992501  0.21014245     0.05850
C80         C  0.56317002  0.23740169  0.21299530     0.05850
C81         C  0.58544536  0.20778601  0.24943477     0.05850
C82         C  0.55565627  0.17378168  0.27452389     0.05850
C83         C  0.50394758  0.17775616  0.27300464     0.05850
C84         C  0.48161026  0.21517854  0.24460039     0.05850
C85         C  0.29049687  0.31181343  0.27469523     0.06690
C86         C  0.33049260  0.28331615  0.25879999    -0.09460
C87         C  0.34574173  0.24151011  0.28556226     0.04190
C88         C  0.31891358  0.22724450  0.32752460    -0.07990
C89         C  0.27849758  0.25519606  0.34418141     0.06680
C90         C  0.26404063  0.29670755  0.31687998    -0.07410
H91         H  0.35032142  0.29450065  0.22603527     0.12280
H92         H  0.33028959  0.19476260  0.34761462     0.09810
H93         H  0.23255229  0.31770603  0.32924339     0.09650
C94         C  0.21723243  0.24223625  0.50499176     0.05850
C95         C  0.21393295  0.24304757  0.55713891     0.05850
C96         C  0.24941392  0.21901784  0.58669319     0.05850
C97         C  0.27914781  0.18318079  0.56341003     0.05850
C98         C  0.28125890  0.18118767  0.51140641     0.05850
C99         C  0.25547165  0.21533543  0.48196998     0.05850
C100        C  0.85210592  0.53033880  0.27975680     0.05850
C101        C  0.85672602  0.47847029  0.28096843     0.05850
C102        C  0.82458964  0.44854180  0.25369835     0.05850
C103        C  0.79491416  0.47092595  0.21750438     0.05850
C104        C  0.78994976  0.52260279  0.21621830     0.05850
C105        C  0.81440955  0.55259142  0.25110364     0.05850
C106        C  0.85366423  0.24260617  0.56092287     0.05850
C107        C  0.81818130  0.21266383  0.58429181     0.05850
C108        C  0.79230345  0.17825534  0.55500552     0.05850
C109        C  0.79353851  0.18165563  0.50277751     0.05850
C110        C  0.82172163  0.21899843  0.47953837     0.05850
C111        C  0.85564115  0.24516000  0.50897453     0.05850
C112        C  0.76788979  0.25363925  0.35033478     0.06690
C113        C  0.73390087  0.22995988  0.31946063    -0.09460
C114        C  0.71881404  0.25129810  0.27465929     0.04190
C115        C  0.73927176  0.29610653  0.25995131    -0.07990
C116        C  0.77250992  0.32122315  0.29030218     0.06680
C117        C  0.78749422  0.29958072  0.33538611    -0.07410
H118        H  0.71745130  0.19571815  0.33153365     0.12280
H119        H  0.72567978  0.31385081  0.22679497     0.09810
H120        H  0.81057767  0.32024760  0.36046457     0.09650
C121        C  0.79192022  0.81983493  0.56022876     0.05850
C122        C  0.82260916  0.78756608  0.58731606     0.05850
C123        C  0.85981731  0.76232131  0.56159465     0.05850
C124        C  0.86027480  0.76156266  0.50975509     0.05850
C125        C  0.82429577  0.78692901  0.48247442     0.05850
C126        C  0.79347857  0.82009300  0.50797967     0.05850
C127        C  0.71958523  0.74525805  0.28071250     0.06690
C128        C  0.74904587  0.70614229  0.26414146    -0.09460
C129        C  0.78871458  0.68874860  0.29288595     0.04190
C130        C  0.80021642  0.71296141  0.33731405    -0.07990
C131        C  0.77121390  0.75239557  0.35431266     0.06680
C132        C  0.73149216  0.76839314  0.32560745    -0.07410
H133        H  0.73991019  0.68824109  0.22967724     0.12280
H134        H  0.82957691  0.69874018  0.36025274     0.09810
H135        H  0.70953410  0.79883093  0.33889419     0.09650
C136        C  0.78290524  0.68036584  0.76936982     0.06690
C137        C  0.74591311  0.69877255  0.80100695    -0.09460
C138        C  0.71933116  0.74151500  0.78858086     0.04190
C139        C  0.73201784  0.76733835  0.74532812    -0.07990
C140        C  0.76857701  0.74989822  0.71359091     0.06680
C141        C  0.79400305  0.70653513  0.72593845    -0.07410
H142        H  0.73481034  0.67792658  0.83313749     0.12280
H143        H  0.71263972  0.80063360  0.73526211     0.09810
H144        H  0.82045325  0.69144013  0.70018857     0.09650
O145        O  0.98231885  0.58129496  0.68350833    -0.70870
O146        O  0.08606255  0.64502504  0.61247638    -0.70900
O147        O  0.08199274  0.57536637  0.68237804    -0.70950
O148        O  0.98603080  0.65083994  0.61330092    -0.71000
O149        O  0.98973200  0.70884950  0.67148430    -0.70930
O150        O  0.08592857  0.63339257  0.74055333    -0.70910
O151        O  0.08975422  0.70299323  0.67064566    -0.70890
O152        O  0.98619895  0.63926840  0.74167103    -0.70950
Ni153      Ni  0.03392925  0.61107240  0.64578616     1.25410
Ni154      Ni  0.03803162  0.67325439  0.70816423     1.25360
C155        C  0.96688848  0.60031350  0.72377385     0.91310
C156        C  0.10569600  0.68369106  0.63073679     0.91250
C157        C  0.10032739  0.59265166  0.72209850     0.91270
C158        C  0.97135763  0.69145537  0.63177693     0.91440
O159        O  0.67060105  0.95067462  0.73973639    -0.70870
O160        O  0.74132959  0.04839309  0.66582318    -0.70900
O161        O  0.67414538  0.05064002  0.73879788    -0.70950
O162        O  0.73862559  0.94831494  0.66776014    -0.71000
O163        O  0.67874656  0.94884966  0.61136916    -0.70930
O164        O  0.61418338  0.05209336  0.68250793    -0.70910
O165        O  0.68137361  0.04900439  0.60956009    -0.70890
O166        O  0.61074926  0.95225899  0.68336203    -0.70950
Ni167      Ni  0.70836060  0.99948027  0.70503944     1.25410
Ni168      Ni  0.64413316  0.00061109  0.64465704     1.25360
C169        C  0.62940518  0.93503002  0.72301058     0.91310
C170        C  0.72230467  0.06523880  0.62600117     0.91250
C171        C  0.63407759  0.06850054  0.72200214     0.91270
C172        C  0.71880550  0.93114365  0.62871170     0.91440
O173        O  0.67327190  0.70417478  0.08671304    -0.70870
O174        O  0.73938581  0.63108682  0.98617274    -0.70900
O175        O  0.67344528  0.70456623  0.98587075    -0.70950
O176        O  0.73909056  0.63055091  0.08640935    -0.71000
O177        O  0.67801469  0.57566158  0.08599106    -0.70930
O178        O  0.61235565  0.64971172  0.98560888    -0.70910
O179        O  0.67831784  0.57618156  0.98566973    -0.70890
O180        O  0.61218550  0.64931709  0.08636221    -0.70950
Ni181      Ni  0.70845773  0.66962338  0.03630214     1.25410
Ni182      Ni  0.64296564  0.61080298  0.03589214     1.25360
C183        C  0.63269428  0.68781462  0.10399526     0.91310
C184        C  0.71925505  0.59224334  0.96897337     0.91250
C185        C  0.63288185  0.68836662  0.96835010     0.91270
C186        C  0.71884663  0.59149918  0.10311936     0.91440
O187        O  0.45232409  0.94815332  0.68480977    -0.70870
O188        O  0.38637791  0.05114763  0.61482211    -0.70900
O189        O  0.45684682  0.04771642  0.68409466    -0.70950
O190        O  0.38233739  0.95108699  0.61492391    -0.71000
O191        O  0.32460102  0.95327556  0.67346430    -0.70930
O192        O  0.39914678  0.05058239  0.74266562    -0.70910
O193        O  0.32868141  0.05332589  0.67339744    -0.70890
O194        O  0.39461865  0.95091997  0.74336339    -0.70950
Ni195      Ni  0.42150267  0.99941361  0.64749731     1.25410
Ni196      Ni  0.35962989  0.00211660  0.71030132     1.25360
C197        C  0.43381599  0.93244475  0.72523230     0.91310
C198        C  0.34742394  0.06983140  0.63349067     0.91250
C199        C  0.43978465  0.06545107  0.72416571     0.91270
C200        C  0.34207305  0.93550046  0.63346905     0.91440
O201        O  0.98750859  0.36590535  0.74116394    -0.70870
O202        O  0.08337014  0.29245888  0.66798849    -0.70900
O203        O  0.08781790  0.36237768  0.73770125    -0.70950
O204        O  0.98332965  0.29495165  0.67213792    -0.71000
O205        O  0.98239772  0.35255397  0.61342286    -0.70930
O206        O  0.08779773  0.41999307  0.67899960    -0.70910
O207        O  0.08238215  0.35010445  0.60929829    -0.70890
O208        O  0.98753040  0.42348353  0.68242577    -0.70950
Ni209      Ni  0.03549035  0.32687439  0.70689089     1.25410
Ni210      Ni  0.03497180  0.38862053  0.64395291     1.25360
C211        C  0.97114393  0.40622485  0.72304829     0.91310
C212        C  0.09925097  0.31006613  0.62717788     0.91250
C213        C  0.10579450  0.40131364  0.71845084     0.91270
C214        C  0.96530637  0.31303414  0.63257587     0.91440
O215        O  0.32978724  0.63683617  0.08717120    -0.70870
O216        O  0.39996792  0.70497526  0.98572438    -0.70900
O217        O  0.32716549  0.63803923  0.98684371    -0.70950
O218        O  0.40172829  0.70420141  0.08546703    -0.71000
O219        O  0.45777719  0.64412729  0.08407289    -0.70930
O220        O  0.38313407  0.57794343  0.98485316    -0.70910
O221        O  0.45592284  0.64483498  0.98440545    -0.70890
O222        O  0.38579823  0.57678369  0.08510927    -0.70950
Ni223      Ni  0.36255484  0.67315032  0.03631606     1.25410
Ni224      Ni  0.42259920  0.60868614  0.03449587     1.25360
C225        C  0.34733253  0.59636201  0.10360359     0.91310
C226        C  0.43934680  0.68579329  0.96853447     0.91250
C227        C  0.34350595  0.59779963  0.96902639     0.91270
C228        C  0.44141373  0.68468666  0.10127773     0.91440
O229        O  0.61867050  0.35063089  0.08842944    -0.70870
O230        O  0.68800783  0.41896129  0.98656557    -0.70900
O231        O  0.61562847  0.35162201  0.98826838    -0.70950
O232        O  0.69044204  0.41814989  0.08708700    -0.71000
O233        O  0.74666659  0.35832351  0.08545815    -0.70930
O234        O  0.67183799  0.29180056  0.98606889    -0.70910
O235        O  0.74424765  0.35914679  0.98486719    -0.70890
O236        O  0.67490062  0.29079455  0.08629484    -0.70950
Ni237      Ni  0.65120749  0.38704405  0.03761509     1.25410
Ni238      Ni  0.71147879  0.32288403  0.03554681     1.25360
C239        C  0.63616107  0.31006120  0.10459509     0.91310
C240        C  0.72685037  0.39959009  0.96840072     0.91250
C241        C  0.63185412  0.31124534  0.97056263     0.91270
C242        C  0.72978778  0.39833764  0.10354628     0.91440
O243        O  0.61227890  0.94892352  0.39179711    -0.70870
O244        O  0.68619152  0.05135549  0.45407985    -0.70900
O245        O  0.61192850  0.04842753  0.38861337    -0.70950
O246        O  0.68624934  0.95107486  0.45748494    -0.71000
O247        O  0.74081788  0.94913201  0.39597200    -0.70930
O248        O  0.66643389  0.04684083  0.32701250    -0.70910
O249        O  0.74074135  0.04950360  0.39258007    -0.70890
O250        O  0.66682907  0.94717811  0.33025399    -0.70950
Ni251      Ni  0.64730758  0.00002640  0.42527793     1.25410
Ni252      Ni  0.70576251  0.99810739  0.35928149     1.25360
C253        C  0.62779530  0.93113169  0.35104281     0.91310
C254        C  0.72477278  0.06802914  0.43284688     0.91250
C255        C  0.62726912  0.06377583  0.34683581     0.91270
C256        C  0.72472779  0.93313823  0.43730195     0.91440
O257        O  0.98315457  0.64064275  0.32866480    -0.70870
O258        O  0.08727823  0.70622059  0.39706563    -0.70900
O259        O  0.08319572  0.63779709  0.32567002    -0.70950
O260        O  0.98754067  0.70889578  0.39963266    -0.71000
O261        O  0.98740978  0.64973803  0.45688425    -0.70930
O262        O  0.08313609  0.57866512  0.38291749    -0.70910
O263        O  0.08714613  0.64707496  0.45426685    -0.70890
O264        O  0.98323204  0.58149953  0.38587558    -0.70950
Ni265      Ni  0.03534475  0.67551033  0.36065397     1.25410
Ni266      Ni  0.03528361  0.61208362  0.42201866     1.25360
C267        C  0.96534923  0.60111274  0.34694632     0.91310
C268        C  0.10451125  0.68701832  0.43652590     0.91250
C269        C  0.09945017  0.59714364  0.34278727     0.91270
C270        C  0.97110907  0.69030100  0.43962840     0.91440
O271        O  0.98744142  0.42539620  0.39166070    -0.70870
O272        O  0.08848899  0.35158812  0.45584519    -0.70900
O273        O  0.08693231  0.42232410  0.38693598    -0.70950
O274        O  0.98843320  0.35444130  0.46049306    -0.71000
O275        O  0.98430475  0.29730925  0.40146862    -0.70930
O276        O  0.08256670  0.36517192  0.32792087    -0.70910
O277        O  0.08434936  0.29447364  0.39684284    -0.70890
O278        O  0.98304847  0.36824689  0.33268470    -0.70950
Ni279      Ni  0.03797882  0.39044482  0.42591983     1.25410
Ni280      Ni  0.03338485  0.32917745  0.36264286     1.25360
C281        C  0.96838615  0.40851163  0.35206483     0.91310
C282        C  0.10387675  0.31180336  0.43607223     0.91250
C283        C  0.10127844  0.40431332  0.34588009     0.91270
C284        C  0.96940591  0.31554479  0.44221786     0.91440
O285        O  0.39158996  0.95175276  0.32640264    -0.70870
O286        O  0.32756566  0.05152099  0.40204220    -0.70900
O287        O  0.39272090  0.05162888  0.32812849    -0.70950
O288        O  0.32583811  0.95197480  0.40028716    -0.71000
O289        O  0.38715047  0.94992322  0.45516353    -0.70930
O290        O  0.45411287  0.05000053  0.38293687    -0.70910
O291        O  0.38889492  0.04957959  0.45688286    -0.70890
O292        O  0.45292098  0.95018450  0.38122495    -0.70950
Ni293      Ni  0.35722672  0.00173416  0.36220986     1.25410
Ni294      Ni  0.42303037  0.99979579  0.42101683     1.25360
C295        C  0.43232271  0.93414996  0.34203826     0.91310
C296        C  0.34838108  0.06747261  0.44117698     0.91250
C297        C  0.43354824  0.06797946  0.34456186     0.91270
C298        C  0.34580987  0.93436002  0.43907232     0.91440
O299        O  0.45481811  0.35244087  0.98255423    -0.70870
O300        O  0.39088481  0.42312550  0.08640048    -0.70900
O301        O  0.45938400  0.35219497  0.08229528    -0.70950
O302        O  0.38668437  0.42391238  0.98604941    -0.71000
O303        O  0.32745659  0.36702775  0.98798296    -0.70930
O304        O  0.40020892  0.29524540  0.08481256    -0.70910
O305        O  0.33170019  0.36622866  0.08837569    -0.70890
O306        O  0.39564334  0.29552908  0.98492804    -0.70950
Ni307      Ni  0.42501188  0.39002032  0.03422135     1.25410
Ni308      Ni  0.36153677  0.32899260  0.03659894     1.25360
C309        C  0.43539464  0.31267580  0.96661074     0.91310
C310        C  0.35151168  0.40541723  0.10515419     0.91250
C311        C  0.44135244  0.31249725  0.09970555     0.91270
C312        C  0.34593399  0.40657125  0.97040147     0.91440
C313        C  0.82025708  0.77788698  0.42794727    -0.12870
C314        C  0.77668967  0.77265471  0.40503256    -0.28050
H315        H  0.85338219  0.76911877  0.40746014     0.16150
H316        H  0.74308859  0.78104117  0.42492868     0.16730
C317        C  0.81743694  0.77896822  0.64180513    -0.12870
C318        C  0.77367625  0.77257884  0.66391310    -0.28050
H319        H  0.85017642  0.77023375  0.66299321     0.16150
H320        H  0.74004581  0.78063988  0.64393178     0.16730
C321        C  0.74931057  0.89303854  0.46088798    -0.09710
C322        C  0.76863338  0.85875232  0.48116941    -0.11270
C323        C  0.89893376  0.73536597  0.48475065    -0.09710
C324        C  0.93240962  0.71480069  0.46480331    -0.11270
C325        C  0.89858613  0.73743783  0.58806550    -0.09710
C326        C  0.93229529  0.71720019  0.60816124    -0.11270
C327        C  0.74200386  0.89061045  0.60455422    -0.09710
C328        C  0.76350641  0.85699718  0.58544794    -0.11270
C329        C  0.81755471  0.23153839  0.42536208    -0.12870
C330        C  0.77421201  0.23385790  0.40142527    -0.28050
H331        H  0.84992230  0.24467295  0.40600443     0.16150
H332        H  0.74118297  0.22140175  0.42009277     0.16730
C333        C  0.74998490  0.10916707  0.45423551    -0.09710
C334        C  0.76977546  0.14360369  0.47399077    -0.11270
C335        C  0.92932475  0.29260415  0.46701224    -0.09710
C336        C  0.89484306  0.27254598  0.48593675    -0.11670
C337        C  0.76622233  0.13804119  0.57872396    -0.09710
C338        C  0.74656585  0.10419638  0.59974288    -0.11270
C339        C  0.89118220  0.26764951  0.58940309    -0.09710
C340        C  0.92473042  0.28849879  0.60952951    -0.11270
C341        C  0.82194391  0.39439307  0.26386376    -0.12870
C342        C  0.77971389  0.37432304  0.27988114    -0.28050
H343        H  0.85504482  0.37216077  0.26194888     0.16150
H344        H  0.74720832  0.39745880  0.28205919     0.16730
C345        C  0.79384800  0.60357618  0.25973637    -0.12870
C346        C  0.81646466  0.64321050  0.27946223    -0.28050
H347        H  0.75500854  0.60748793  0.25135610     0.16150
H348        H  0.85485882  0.64222389  0.28924881     0.16730
C349        C  0.77269193  0.44157447  0.17903589    -0.09710
C350        C  0.75437732  0.42087299  0.14436624    -0.11270
C351        C  0.89574140  0.45549162  0.30884423    -0.09710
C352        C  0.92913802  0.43488864  0.32921304    -0.11270
C353        C  0.76236562  0.54545734  0.17664203    -0.09710
C354        C  0.74201141  0.56555309  0.14274159    -0.11270
C355        C  0.92369077  0.57874436  0.32395281    -0.09710
C356        C  0.88899088  0.55897342  0.30485319    -0.11270
C357        C  0.17262830  0.26692538  0.58093441    -0.09710
C358        C  0.13821265  0.28559232  0.60161575    -0.11270
C359        C  0.32470221  0.11101495  0.60995444    -0.09710
C360        C  0.30480834  0.14567452  0.59085897    -0.11270
C361        C  0.32644413  0.10729807  0.46724436    -0.09710
C362        C  0.30743218  0.14154473  0.48759485    -0.11270
C363        C  0.17950106  0.26699419  0.47697844    -0.09710
C364        C  0.14485757  0.28687586  0.45777823    -0.11270
C365        C  0.25179030  0.24312689  0.39094525    -0.12870
C366        C  0.27531512  0.22470844  0.43073384    -0.28050
H367        H  0.21317670  0.25204377  0.39241934     0.16150
H368        H  0.31432948  0.21739108  0.42660529     0.16730
C369        C  0.39102333  0.21349761  0.27194940    -0.12870
C370        C  0.43138271  0.23647112  0.25446269    -0.28050
H371        H  0.39120352  0.17444856  0.27910757     0.16150
H372        H  0.42873476  0.27586174  0.24859145     0.16730
C373        C  0.63517811  0.21786508  0.27083009    -0.12870
C374        C  0.67595468  0.23203113  0.24669876    -0.28050
H375        H  0.63679662  0.21604226  0.31082678     0.16150
H376        H  0.67635720  0.23488555  0.20690599     0.16730
C377        C  0.48823942  0.26694126  0.17075416    -0.09710
C378        C  0.46739657  0.28750307  0.13768935    -0.11270
C379        C  0.45611767  0.10823302  0.32002911    -0.09710
C380        C  0.47558083  0.14193195  0.29931238    -0.11270
C381        C  0.60038131  0.10154483  0.32216519    -0.09710
C382        C  0.57903894  0.13431004  0.30153093    -0.11270
C383        C  0.61226382  0.28584616  0.14463321    -0.09710
C384        C  0.59184053  0.26459789  0.17764811    -0.11270
C385        C  0.27845337  0.35837822  0.24785720    -0.12870
C386        C  0.26245331  0.39842268  0.27219273    -0.28050
H387        H  0.28479953  0.35980070  0.20848707     0.16150
H388        H  0.25740707  0.39528101  0.31178476     0.16730
C389        C  0.14004525  0.42794955  0.31995150    -0.09710
C390        C  0.17330427  0.44800195  0.29911658    -0.11270
C391        C  0.30907553  0.44855985  0.18100454    -0.09710
C392        C  0.32941235  0.42935074  0.14659569    -0.11270
C393        C  0.30567649  0.55294810  0.17949030    -0.09710
C394        C  0.32439083  0.57295102  0.14470310    -0.11270
C395        C  0.17150837  0.55172091  0.29739310    -0.09710
C396        C  0.13794794  0.57238891  0.31726152    -0.11270
C397        C  0.26193999  0.60090719  0.27312557    -0.12870
C398        C  0.28015255  0.64124976  0.25075693    -0.28050
H399        H  0.25646755  0.60240630  0.31273161     0.16150
H400        H  0.28752854  0.64131614  0.21156048     0.16730
C401        C  0.25727659  0.78415061  0.42791176    -0.12870
C402        C  0.26235745  0.74075020  0.40462026    -0.28050
H403        H  0.26687960  0.81721826  0.40766248     0.16150
H404        H  0.25337083  0.70693842  0.42386884     0.16730
C405        C  0.17795951  0.73059101  0.48224491    -0.09710
C406        C  0.14453751  0.71055937  0.46124984    -0.11270
C407        C  0.30012143  0.86279767  0.48463144    -0.09710
C408        C  0.32144774  0.89570246  0.46449228    -0.11270
C409        C  0.18149815  0.72561263  0.58696512    -0.09710
C410        C  0.14714992  0.70552873  0.60654077    -0.11270
C411        C  0.29793388  0.86209377  0.58853825    -0.09710
C412        C  0.31697732  0.89608133  0.60946021    -0.11270
C413        C  0.42623890  0.77673332  0.24697639    -0.12870
C414        C  0.40281268  0.77327127  0.29076243    -0.28050
H415        H  0.40689307  0.76583884  0.21377039     0.16150
H416        H  0.42241334  0.78363870  0.32405042     0.16730
C417        C  0.63334941  0.77390229  0.27573595    -0.12870
C418        C  0.67466226  0.75946513  0.25235167    -0.28050
H419        H  0.63422154  0.77589919  0.31569425     0.16150
H420        H  0.67559876  0.75614521  0.21261798     0.16730
C421        C  0.46743868  0.70863294  0.13986925    -0.09710
C422        C  0.48712872  0.73035746  0.17284732    -0.11270
C423        C  0.45512218  0.89475975  0.31582278    -0.09710
C424        C  0.47590011  0.86114581  0.29601182    -0.11270
C425        C  0.61029487  0.71240152  0.14497198    -0.09710
C426        C  0.59053099  0.73263079  0.17918502    -0.11270
C427        C  0.57980696  0.85948226  0.30711415    -0.09710
C428        C  0.60107216  0.89208090  0.32813594    -0.11270
C429        C  0.25171827  0.75233487  0.67610644    -0.12870
C430        C  0.27418060  0.77040832  0.63570376    -0.28050
H431        H  0.21257811  0.74516639  0.67603008     0.16150
H432        H  0.31369554  0.77576338  0.63740627     0.16730
C433        C  0.42761987  0.77547511  0.82172774    -0.12870
C434        C  0.40398163  0.77192385  0.77813188    -0.28050
H435        H  0.40817573  0.76354141  0.85455529     0.16150
H436        H  0.42261068  0.78330817  0.74463512     0.16730
C437        C  0.67538304  0.75598458  0.81847643    -0.12870
C438        C  0.63524635  0.77579615  0.79680620    -0.28050
H439        H  0.67584589  0.74781866  0.85745690     0.16150
H440        H  0.63681502  0.78192402  0.75730949     0.16730
C441        C  0.48689788  0.73142984  0.89781299    -0.09710
C442        C  0.46545973  0.71045692  0.93028615    -0.11270
C443        C  0.45725614  0.89287467  0.75063505    -0.09710
C444        C  0.47777873  0.85985405  0.77171907    -0.11270
C445        C  0.60383271  0.89646008  0.74840548    -0.09710
C446        C  0.58234835  0.86321156  0.76843819    -0.11270
C447        C  0.59079302  0.73353318  0.89323322    -0.09710
C448        C  0.61045590  0.71328519  0.92753953    -0.11270
C449        C  0.25757883  0.23869393  0.63820627    -0.12870
C450        C  0.28051464  0.21686977  0.67669281    -0.28050
H451        H  0.24658593  0.27670224  0.64312254     0.16150
H452        H  0.29314214  0.17943261  0.67448025     0.16730
C453        C  0.25264299  0.35805150  0.79320340    -0.12870
C454        C  0.27549224  0.39923439  0.80855658    -0.28050
H455        H  0.21313037  0.35737324  0.78850062     0.16150
H456        H  0.31523088  0.39840868  0.81202211     0.16730
C457        C  0.24786036  0.60623209  0.81168445    -0.12870
C458        C  0.29162357  0.62942323  0.80821794    -0.28050
H459        H  0.21484456  0.62589677  0.80101925     0.16150
H460        H  0.32477903  0.60963672  0.81839407     0.16730
C461        C  0.18136077  0.44314953  0.76282281    -0.09710
C462        C  0.14748153  0.42396407  0.74154533    -0.11270
C463        C  0.30182727  0.45157410  0.89691962    -0.09710
C464        C  0.32137714  0.43128084  0.93104987    -0.11270
C465        C  0.17269751  0.54638480  0.76577248    -0.09710
C466        C  0.13903601  0.56656644  0.74568592    -0.11270
C467        C  0.29661869  0.55537061  0.89584448    -0.09710
C468        C  0.31738034  0.57507193  0.92955361    -0.11270
C469        C  0.42889007  0.21311918  0.81221252    -0.12870
C470        C  0.40555976  0.25650970  0.80708653    -0.28050
H471        H  0.40898388  0.17984906  0.80280604     0.16150
H472        H  0.42503468  0.29019833  0.81594348     0.16730
C473        C  0.48755219  0.13674079  0.76844962    -0.09710
C474        C  0.46634077  0.10371372  0.74822710    -0.11270
C475        C  0.47941117  0.26528062  0.89451188    -0.09710
C476        C  0.45864799  0.28682161  0.92713819    -0.11270
C477        C  0.59132775  0.14091761  0.76995679    -0.09710
C478        C  0.61125300  0.10809461  0.74798505    -0.11270
C479        C  0.58371455  0.26764926  0.89849411    -0.09710
C480        C  0.60506402  0.28776804  0.93173075    -0.11270
C481        C  0.80407606  0.26032300  0.66194499    -0.12870
C482        C  0.80704398  0.21664800  0.63850337    -0.28050
H483        H  0.81514463  0.29351831  0.64272898     0.16150
H484        H  0.79520126  0.18392398  0.65803879     0.16730
C485        C  0.66393333  0.22858912  0.77583436    -0.12870
C486        C  0.64171822  0.22464510  0.82014211    -0.28050
H487        H  0.64406808  0.21775047  0.74288216     0.16150
H488        H  0.66192969  0.23619762  0.85262297     0.16730
C489        C  0.81948406  0.39401402  0.80859309    -0.12870
C490        C  0.77556385  0.37104569  0.80563591    -0.28050
H491        H  0.85185322  0.37434031  0.79611611     0.16150
H492        H  0.74266242  0.39025854  0.81746264     0.16730
C493        C  0.80877565  0.60672889  0.81960194    -0.12870
C494        C  0.80451852  0.63014417  0.77588128    -0.28050
H495        H  0.79850912  0.62629258  0.85286327     0.16150
H496        H  0.81442486  0.61053456  0.74247664     0.16730
C497        C  0.89861728  0.45286996  0.76763580    -0.09710
C498        C  0.93240193  0.43204960  0.74784499    -0.11270
C499        C  0.75089228  0.42318889  0.92791444    -0.09710
C500        C  0.77054993  0.44360628  0.89384117    -0.11270
C501        C  0.76394590  0.54715526  0.89577020    -0.09710
C502        C  0.74280446  0.56684033  0.92934619    -0.11270
C503        C  0.89328096  0.55716266  0.76982085    -0.09710
C504        C  0.92666615  0.57764728  0.74912986    -0.11270
loop_ 
_geom_bond_atom_site_label_1 
_geom_bond_atom_site_label_2 
_geom_bond_distance 
_geom_bond_site_symmetry_2 
_ccdc_geom_bond_type 
C1            C2   1.417       .  A
C1            C6   1.417       .  A
C1          C503   1.447       .  S
C2            C3   1.414       .  A
C2          C493   1.508       .  S
C3            C4   1.413       .  A
C3          C501   1.448       .  S
C4            C5   1.414       .  A
C4          C500   1.446       .  S
C5            C6   1.414       .  A
C5          C489   1.507       .  S
C6          C497   1.451       .  S
C7            C8   1.407       .  A
C7           C12   1.409       .  A
C7          C481   1.492       .  S
C8            C9   1.410       .  A
C8           H13   1.083       .  S
C9           C10   1.407       .  A
C9          C490   1.493       .  S
C10          C11   1.410       .  A
C10          H14   1.083       .  S
C11          C12   1.406       .  A
C11         C485   1.492       .  S
C12          H15   1.083       .  S
C16          C17   1.416       .  A
C16          C21   1.414       .  A
C16         C475   1.445       .  S
C17          C18   1.414       .  A
C17         C479   1.449       .  S
C18          C19   1.414       .  A
C18         C486   1.506       .  S
C19          C20   1.413       .  A
C19         C477   1.446       .  S
C20          C21   1.411       .  A
C20         C473   1.444       .  S
C21         C469   1.507       .  S
C22          C23   1.409       .  A
C22          C27   1.408       .  A
C22         C467   1.442       .  S
C23          C24   1.412       .  A
C23         C457   1.504       .  S
C24          C25   1.415       .  A
C24         C465   1.439       .  S
C25          C26   1.415       .  A
C25         C461   1.447       .  S
C26          C27   1.409       .  A
C26         C454   1.499       .  S
C27         C463   1.445       .  S
C28          C29   1.410       .  A
C28          C33   1.405       .  A
C28         C453   1.495       .  S
C29          C30   1.402       .  A
C29          H34   1.083       .  S
C30          C31   1.410       .  A
C30         C470   1.492       .  S
C31          C32   1.410       .  A
C31          H35   1.084       .  S
C32          C33   1.412       .  A
C32         C450   1.496       .  S
C33          H36   1.083       .  S
C37          C38   1.417       .  A
C37          C42   1.413       .  A
C37         C441   1.443       .  S
C38          C39   1.415       .  A
C38         C447   1.446       .  S
C39          C40   1.412       .  A
C39         C438   1.505       .  S
C40          C41   1.413       .  A
C40         C446   1.453       .  S
C41          C42   1.413       .  A
C41         C444   1.443       .  S
C42         C433   1.509       .  S
C43          C44   1.406       .  A
C43          C48   1.412       .  A
C43         C429   1.497       .  S
C44          C45   1.412       .  A
C44          H49   1.083       .  S
C45          C46   1.410       .  A
C45         C458   1.494       .  S
C46          C47   1.409       .  A
C46          H50   1.084       .  S
C47          C48   1.403       .  A
C47         C434   1.494       .  S
C48          H51   1.083       .  S
C52          C53   1.411       .  A
C52          C57   1.412       .  A
C52         C427   1.447       .  S
C53          C54   1.410       .  A
C53         C424   1.444       .  S
C54          C55   1.413       .  A
C54         C413   1.506       .  S
C55          C56   1.415       .  A
C55         C422   1.440       .  S
C56          C57   1.414       .  A
C56         C426   1.447       .  S
C57         C417   1.500       .  S
C58          C59   1.406       .  A
C58          C63   1.404       .  A
C58         C411   1.448       .  S
C59          C60   1.416       .  A
C59         C430   1.499       .  S
C60          C61   1.421       .  A
C60         C409   1.445       .  S
C61          C62   1.416       .  A
C61         C405   1.446       .  S
C62          C63   1.409       .  A
C62         C401   1.505       .  S
C63         C407   1.440       .  S
C64          C65   1.408       .  A
C64          C69   1.401       .  A
C64         C402   1.491       .  S
C65          C66   1.409       .  A
C65          H70   1.084       .  S
C66          C67   1.413       .  A
C66         C414   1.494       .  S
C67          C68   1.407       .  A
C67          H71   1.083       .  S
C68          C69   1.411       .  A
C68         C398   1.497       .  S
C69          H72   1.083       .  S
C73          C74   1.413       .  A
C73          C78   1.422       .  A
C73         C393   1.440       .  S
C74          C75   1.403       .  A
C74         C397   1.499       .  S
C75          C76   1.402       .  A
C75         C395   1.444       .  S
C76          C77   1.406       .  A
C76         C390   1.440       .  S
C77          C78   1.417       .  A
C77         C386   1.502       .  S
C78         C391   1.444       .  S
C79          C80   1.411       .  A
C79          C84   1.409       .  A
C79         C377   1.442       .  S
C80          C81   1.411       .  A
C80         C384   1.440       .  S
C81          C82   1.406       .  A
C81         C373   1.498       .  S
C82          C83   1.412       .  A
C82         C382   1.447       .  S
C83          C84   1.414       .  A
C83         C380   1.433       .  S
C84         C370   1.508       .  S
C85          C86   1.404       .  A
C85          C90   1.413       .  A
C85         C385   1.497       .  S
C86          C87   1.411       .  A
C86          H91   1.083       .  S
C87          C88   1.407       .  A
C87         C369   1.495       .  S
C88          C89   1.412       .  A
C88          H92   1.083       .  S
C89          C90   1.406       .  A
C89         C365   1.498       .  S
C90          H93   1.083       .  S
C94          C95   1.417       .  A
C94          C99   1.418       .  A
C94         C363   1.444       .  S
C95          C96   1.414       .  A
C95         C357   1.450       .  S
C96          C97   1.416       .  A
C96         C449   1.513       .  S
C97          C98   1.413       .  A
C97         C360   1.443       .  S
C98          C99   1.411       .  A
C98         C362   1.445       .  S
C99         C366   1.513       .  S
C100        C101   1.417       .  A
C100        C105   1.422       .  A
C100        C356   1.442       .  S
C101        C102   1.405       .  A
C101        C351   1.445       .  S
C102        C103   1.409       .  A
C102        C341   1.501       .  S
C103        C104   1.413       .  A
C103        C349   1.447       .  S
C104        C105   1.416       .  A
C104        C353   1.449       .  S
C105        C345   1.514       .  S
C106        C107   1.413       .  A
C106        C111   1.412       .  A
C106        C339   1.450       .  S
C107        C108   1.416       .  A
C107        C482   1.505       .  S
C108        C109   1.420       .  A
C108        C337   1.454       .  S
C109        C110   1.420       .  A
C109        C334   1.449       .  S
C110        C111   1.413       .  A
C110        C329   1.513       .  S
C111        C336   1.443       .  S
C112        C113   1.404       .  A
C112        C117   1.418       .  A
C112        C330   1.496       .  S
C113        C114   1.407       .  A
C113        H118   1.084       .  S
C114        C115   1.398       .  A
C114        C374   1.487       .  S
C115        C116   1.401       .  A
C115        H119   1.085       .  S
C116        C117   1.417       .  A
C116        C342   1.485       .  S
C117        H120   1.083       .  S
C121        C122   1.417       .  A
C121        C126   1.418       .  A
C121        C328   1.446       .  S
C122        C123   1.409       .  A
C122        C317   1.503       .  S
C123        C124   1.406       .  A
C123        C325   1.444       .  S
C124        C125   1.407       .  A
C124        C323   1.441       .  S
C125        C126   1.413       .  A
C125        C313   1.503       .  S
C126        C322   1.446       .  S
C127        C128   1.407       .  A
C127        C132   1.409       .  A
C127        C418   1.495       .  S
C128        C129   1.413       .  A
C128        H133   1.083       .  S
C129        C130   1.409       .  A
C129        C346   1.496       .  S
C130        C131   1.410       .  A
C130        H134   1.084       .  S
C131        C132   1.401       .  A
C131        C314   1.490       .  S
C132        H135   1.083       .  S
C136        C137   1.415       .  A
C136        C141   1.409       .  A
C136        C494   1.498       .  S
C137        C138   1.410       .  A
C137        H142   1.083       .  S
C138        C139   1.410       .  A
C138        C437   1.498       .  S
C139        C140   1.399       .  A
C139        H143   1.083       .  S
C140        C141   1.408       .  A
C140        C318   1.488       .  S
C141        H144   1.084       .  S
O145       Ni153   1.917   1_655  S
O145        C155   1.280       .  A
O146       Ni153   1.919       .  S
O146        C156   1.280       .  A
O147       Ni153   1.907       .  S
O147        C157   1.277       .  A
O148       Ni153   1.909   1_655  S
O148        C158   1.278       .  A
O149       Ni154   1.911   1_655  S
O149        C158   1.278       .  A
O150       Ni154   1.909       .  S
O150        C157   1.278       .  A
O151       Ni154   1.916       .  S
O151        C156   1.279       .  A
O152       Ni154   1.916   1_655  S
O152        C155   1.279       .  A
Ni153      Ni154   2.396       .  S
C155        C504   1.432       .  S
C156        C410   1.434       .  S
C157        C466   1.422       .  S
C158        C326   1.425       .  S
O159       Ni167   1.924       .  S
O159        C169   1.282       .  A
O160       Ni167   1.925   1_545  S
O160        C170   1.282       .  A
O161       Ni167   1.909   1_545  S
O161        C171   1.277       .  A
O162       Ni167   1.908       .  S
O162        C172   1.277       .  A
O163       Ni168   1.921   1_565  S
O163        C172   1.281       .  A
O164       Ni168   1.919       .  S
O164        C171   1.281       .  A
O165       Ni168   1.915       .  S
O165        C170   1.278       .  A
O166       Ni168   1.912   1_565  S
O166        C169   1.278       .  A
Ni167      Ni168   2.395   1_565  S
C169        C445   1.435       .  S
C170        C338   1.437       .  S
C171        C478   1.430       .  S
C172        C327   1.430       .  S
O173       Ni181   1.917       .  S
O173        C183   1.279       .  A
O174       Ni181   1.913   1_556  S
O174        C184   1.279       .  A
O175       Ni181   1.918   1_556  S
O175        C185   1.280       .  A
O176       Ni181   1.916       .  S
O176        C186   1.280       .  A
O177       Ni182   1.915       .  S
O177        C186   1.279       .  A
O178       Ni182   1.916   1_556  S
O178        C185   1.279       .  A
O179       Ni182   1.916   1_556  S
O179        C184   1.279       .  A
O180       Ni182   1.917       .  S
O180        C183   1.280       .  A
Ni181      Ni182   2.395       .  S
C183        C425   1.434       .  S
C184        C502   1.430       .  S
C185        C448   1.434       .  S
C186        C354   1.431       .  S
O187       Ni195   1.916       .  S
O187        C197   1.280       .  A
O188       Ni195   1.918   1_545  S
O188        C198   1.280       .  A
O189       Ni195   1.908   1_545  S
O189        C199   1.277       .  A
O190       Ni195   1.910       .  S
O190        C200   1.278       .  A
O191       Ni196   1.917   1_565  S
O191        C200   1.280       .  A
O192       Ni196   1.915       .  S
O192        C199   1.280       .  A
O193       Ni196   1.911       .  S
O193        C198   1.278       .  A
O194       Ni196   1.910   1_565  S
O194        C197   1.278       .  A
Ni195      Ni196   2.396   1_565  S
C197        C443   1.428       .  S
C198        C359   1.430       .  S
C199        C474   1.426       .  S
C200        C412   1.429       .  S
O201       Ni209   1.923   1_655  S
O201        C211   1.282       .  A
O202       Ni209   1.921       .  S
O202        C212   1.281       .  A
O203       Ni209   1.913       .  S
O203        C213   1.278       .  A
O204       Ni209   1.912   1_655  S
O204        C214   1.278       .  A
O205       Ni210   1.922   1_655  S
O205        C214   1.281       .  A
O206       Ni210   1.923       .  S
O206        C213   1.281       .  A
O207       Ni210   1.910       .  S
O207        C212   1.277       .  A
O208       Ni210   1.912   1_655  S
O208        C211   1.278       .  A
Ni209      Ni210   2.394       .  S
C211        C498   1.435       .  S
C212        C358   1.432       .  S
C213        C462   1.435       .  S
C214        C340   1.434       .  S
O215       Ni223   1.916       .  S
O215        C225   1.280       .  A
O216       Ni223   1.915   1_556  S
O216        C226   1.280       .  A
O217       Ni223   1.908   1_556  S
O217        C227   1.277       .  A
O218       Ni223   1.905       .  S
O218        C228   1.277       .  A
O219       Ni224   1.912       .  S
O219        C228   1.279       .  A
O220       Ni224   1.915   1_556  S
O220        C227   1.280       .  A
O221       Ni224   1.906   1_556  S
O221        C226   1.277       .  A
O222       Ni224   1.908       .  S
O222        C225   1.277       .  A
Ni223      Ni224   2.398       .  S
C225        C394   1.427       .  S
C226        C442   1.425       .  S
C227        C468   1.426       .  S
C228        C421   1.422       .  S
O229       Ni237   1.914       .  S
O229        C239   1.279       .  A
O230       Ni237   1.917   1_556  S
O230        C240   1.280       .  A
O231       Ni237   1.913   1_556  S
O231        C241   1.278       .  A
O232       Ni237   1.912       .  S
O232        C242   1.279       .  A
O233       Ni238   1.918       .  S
O233        C242   1.280       .  A
O234       Ni238   1.918   1_556  S
O234        C241   1.280       .  A
O235       Ni238   1.912   1_556  S
O235        C240   1.278       .  A
O236       Ni238   1.910       .  S
O236        C239   1.278       .  A
Ni237      Ni238   2.396       .  S
C239        C383   1.427       .  S
C240        C499   1.430       .  S
C241        C480   1.432       .  S
C242        C350   1.432       .  S
O243       Ni251   1.915   1_565  S
O243        C253   1.279       .  A
O244       Ni251   1.919       .  S
O244        C254   1.280       .  A
O245       Ni251   1.910       .  S
O245        C255   1.278       .  A
O246       Ni251   1.912   1_565  S
O246        C256   1.279       .  A
O247       Ni252   1.917       .  S
O247        C256   1.280       .  A
O248       Ni252   1.915   1_545  S
O248        C255   1.280       .  A
O249       Ni252   1.918   1_545  S
O249        C254   1.279       .  A
O250       Ni252   1.914       .  S
O250        C253   1.279       .  A
Ni251      Ni252   2.396   1_545  S
C253        C428   1.430       .  S
C254        C333   1.436       .  S
C255        C381   1.428       .  S
C256        C321   1.430       .  S
O257       Ni265   1.916   1_655  S
O257        C267   1.279       .  A
O258       Ni265   1.916       .  S
O258        C268   1.280       .  A
O259       Ni265   1.911       .  S
O259        C269   1.278       .  A
O260       Ni265   1.907   1_655  S
O260        C270   1.278       .  A
O261       Ni266   1.909   1_655  S
O261        C270   1.278       .  A
O262       Ni266   1.910       .  S
O262        C269   1.278       .  A
O263       Ni266   1.914       .  S
O263        C268   1.279       .  A
O264       Ni266   1.913   1_655  S
O264        C267   1.279       .  A
Ni265      Ni266   2.397       .  S
C267        C355   1.430       .  S
C268        C406   1.430       .  S
C269        C396   1.425       .  S
C270        C324   1.421       .  S
O271       Ni279   1.912   1_655  S
O271        C281   1.278       .  A
O272       Ni279   1.914       .  S
O272        C282   1.279       .  A
O273       Ni279   1.909       .  S
O273        C283   1.278       .  A
O274       Ni279   1.912   1_655  S
O274        C284   1.279       .  A
O275       Ni280   1.909   1_655  S
O275        C284   1.278       .  A
O276       Ni280   1.907       .  S
O276        C283   1.277       .  A
O277       Ni280   1.916       .  S
O277        C282   1.280       .  A
O278       Ni280   1.914   1_655  S
O278        C281   1.279       .  A
Ni279      Ni280   2.397       .  S
C281        C352   1.428       .  S
C282        C364   1.431       .  S
C283        C389   1.421       .  S
C284        C335   1.425       .  S
O285       Ni293   1.916   1_565  S
O285        C295   1.279       .  A
O286       Ni293   1.912       .  S
O286        C296   1.279       .  A
O287       Ni293   1.905       .  S
O287        C297   1.277       .  A
O288       Ni293   1.905   1_565  S
O288        C298   1.277       .  A
O289       Ni294   1.911       .  S
O289        C298   1.279       .  A
O290       Ni294   1.910   1_545  S
O290        C297   1.279       .  A
O291       Ni294   1.910   1_545  S
O291        C296   1.278       .  A
O292       Ni294   1.911       .  S
O292        C295   1.278       .  A
Ni293      Ni294   2.398   1_545  S
C295        C423   1.429       .  S
C296        C361   1.426       .  S
C297        C379   1.421       .  S
C298        C408   1.421       .  S
O299       Ni307   1.916   1_556  S
O299        C309   1.280       .  A
O300       Ni307   1.918       .  S
O300        C310   1.280       .  A
O301       Ni307   1.906       .  S
O301        C311   1.277       .  A
O302       Ni307   1.908   1_556  S
O302        C312   1.277       .  A
O303       Ni308   1.915   1_556  S
O303        C312   1.280       .  A
O304       Ni308   1.913       .  S
O304        C311   1.279       .  A
O305       Ni308   1.913       .  S
O305        C310   1.279       .  A
O306       Ni308   1.912   1_556  S
O306        C309   1.278       .  A
Ni307      Ni308   2.397       .  S
C309        C476   1.429       .  S
C310        C392   1.432       .  S
C311        C378   1.423       .  S
C312        C464   1.427       .  S
C313        C314   1.346       .  D
C313        H315   1.086       .  S
C314        H316   1.086       .  S
C317        C318   1.344       .  D
C317        H319   1.086       .  S
C318        H320   1.086       .  S
C321        C322   1.204       .  T
C323        C324   1.198       .  T
C325        C326   1.200       .  T
C327        C328   1.204       .  T
C329        C330   1.347       .  D
C329        H331   1.086       .  S
C330        H332   1.086       .  S
C333        C334   1.207       .  T
C335        C336   1.201       .  T
C337        C338   1.208       .  T
C339        C340   1.205       .  T
C341        C342   1.344       .  D
C341        H343   1.086       .  S
C342        H344   1.087       .  S
C345        C346   1.352       .  D
C345        H347   1.086       .  S
C346        H348   1.078       .  S
C349        C350   1.204       .  T
C351        C352   1.202       .  T
C353        C354   1.204       .  T
C355        C356   1.204       .  T
C357        C358   1.204       .  T
C359        C360   1.204       .  T
C361        C362   1.201       .  T
C363        C364   1.205       .  T
C365        C366   1.351       .  D
C365        H367   1.079       .  S
C366        H368   1.086       .  S
C369        C370   1.350       .  D
C369        H371   1.080       .  S
C370        H372   1.086       .  S
C373        C374   1.345       .  D
C373        H375   1.087       .  S
C374        H376   1.082       .  S
C377        C378   1.199       .  T
C379        C380   1.199       .  T
C381        C382   1.202       .  T
C383        C384   1.202       .  T
C385        C386   1.347       .  D
C385        H387   1.082       .  S
C386        H388   1.086       .  S
C389        C390   1.198       .  T
C391        C392   1.205       .  T
C393        C394   1.202       .  T
C395        C396   1.201       .  T
C397        C398   1.348       .  D
C397        H399   1.085       .  S
C398        H400   1.082       .  S
C401        C402   1.347       .  D
C401        H403   1.086       .  S
C402        H404   1.085       .  S
C405        C406   1.203       .  T
C407        C408   1.198       .  T
C409        C410   1.206       .  T
C411        C412   1.203       .  T
C413        C414   1.351       .  D
C413        H415   1.085       .  S
C414        H416   1.086       .  S
C417        C418   1.349       .  D
C417        H419   1.085       .  S
C418        H420   1.082       .  S
C421        C422   1.199       .  T
C423        C424   1.203       .  T
C425        C426   1.206       .  T
C427        C428   1.203       .  T
C429        C430   1.348       .  D
C429        H431   1.083       .  S
C430        H432   1.086       .  S
C433        C434   1.349       .  D
C433        H435   1.085       .  S
C434        H436   1.085       .  S
C437        C438   1.352       .  D
C437        H439   1.080       .  S
C438        H440   1.085       .  S
C441        C442   1.201       .  T
C443        C444   1.202       .  T
C445        C446   1.206       .  T
C447        C448   1.206       .  T
C449        C450   1.353       .  D
C449        H451   1.085       .  S
C450        H452   1.077       .  S
C453        C454   1.348       .  D
C453        H455   1.083       .  S
C454        H456   1.085       .  S
C457        C458   1.351       .  D
C457        H459   1.085       .  S
C458        H460   1.086       .  S
C461        C462   1.206       .  T
C463        C464   1.202       .  T
C465        C466   1.198       .  T
C467        C468   1.201       .  T
C469        C470   1.348       .  D
C469        H471   1.086       .  S
C470        H472   1.086       .  S
C473        C474   1.201       .  T
C475        C476   1.203       .  T
C477        C478   1.203       .  T
C479        C480   1.204       .  T
C481        C482   1.351       .  D
C481        H483   1.085       .  S
C482        H484   1.085       .  S
C485        C486   1.350       .  D
C485        H487   1.085       .  S
C486        H488   1.085       .  S
C489        C490   1.351       .  D
C489        H491   1.085       .  S
C490        H492   1.085       .  S
C493        C494   1.351       .  D
C493        H495   1.085       .  S
C494        H496   1.086       .  S
C497        C498   1.206       .  T
C499        C500   1.203       .  T
C501        C502   1.203       .  T
C503        C504   1.204       .  T
