geometry optimzed in LAMMPS
_audit_creation_date              2020-11-30 
_audit_creation_method            'lammps2cif' 
_symmetry_space_group_name_H-M    'P1' 
_symmetry_Int_Tables_number       1 
_symmetry_cell_setting            triclinic 
loop_ 
_symmetry_equiv_pos_as_xyz 
  x,y,z 
_cell_length_a                    40.96636329 
_cell_length_b                    41.127820489034676 
_cell_length_c                    72.58560358049638 
_cell_angle_alpha                 89.98592418440217 
_cell_angle_beta                  89.81530890809852 
_cell_angle_gamma                 120.14758273822851 
loop_ 
_atom_site_label 
_atom_site_type_symbol 
_atom_site_fract_x 
_atom_site_fract_y 
_atom_site_fract_z 
_atom_site_charge 
O1          O  0.10315231  0.30258116  0.32922549    -0.88500
C2          C  0.18535583  0.35117160  0.29013488     0.87500
Mg3        Mg  0.09998843  0.33157463  0.35340443     1.58100
O4          O  0.18884172  0.28493371  0.31963560    -0.88200
O5          O  0.10018403  0.25036722  0.32053747    -0.75600
C6          C  0.27045390  0.40977150  0.38987958     0.92600
O7          O  0.14858004  0.38831102  0.31758401    -0.75400
O8          O  0.24174884  0.41404280  0.39060348    -0.82900
Mg9        Mg  0.11009139  0.33089421  0.30354566     1.58000
C10         C  0.29582982  0.32014260  0.34238164     0.92500
O11         O  0.06989276  0.27716845  0.28727414    -0.81100
H12         H  0.16680614  0.23341544  0.33051352    -0.06500
C13         C  0.25463432  0.39606166  0.33616550     0.87400
O14         O  0.12406848  0.30270317  0.37134813    -0.75700
O15         O  0.15754430  0.32420578  0.29729810    -0.88400
O16         O  0.27451911  0.30722541  0.32839355    -0.81200
C17         C  0.22431832  0.28204092  0.27502432     0.92600
C18         C  0.07116091  0.25329796  0.27650077     0.92500
Mg19       Mg  0.23345767  0.33357078  0.36258257     1.58000
O20         O  0.27249747  0.38732192  0.37848714    -0.81100
O21         O  0.19624340  0.27561091  0.34876261    -0.75400
O22         O  0.18963666  0.27347624  0.27529961    -0.81200
O23         O  0.05881438  0.33593565  0.30977454    -0.82900
O24         O  0.15313455  0.38854904  0.39122411    -0.81300
C25         C  0.18340870  0.26342187  0.33271259     0.86900
O26         O  0.18521189  0.33868360  0.36891222    -0.88400
O27         O  0.23956281  0.36150096  0.33688259    -0.88500
O28         O  0.24303865  0.41357704  0.34616612    -0.75600
Mg29       Mg  0.14629956  0.26687931  0.29834104     1.58000
O30         O  0.24688685  0.30121311  0.28787254    -0.82900
H31         H  0.06502109  0.25263676  0.33962899    -0.06700
O32         O  0.15459327  0.37858506  0.34685745    -0.88200
H33         H  0.17837488  0.43017999  0.33592480    -0.06500
H34         H  0.16149911  0.29351004  0.38535825    -0.06700
C35         C  0.16102896  0.40023706  0.33371581     0.86900
C36         C  0.08829867  0.26806048  0.33019336     0.87500
C37         C  0.15737713  0.31128188  0.37579699     0.87500
H38         H  0.27797678  0.41167808  0.32678962    -0.06600
O39         O  0.21868596  0.35979230  0.29454905    -0.75700
Mg40       Mg  0.19636098  0.39604823  0.36826867     1.58000
H41         H  0.18120457  0.36855442  0.28033537    -0.06700
C42         C  0.05039210  0.34875001  0.32378124     0.92500
O43         O  0.09588809  0.36094563  0.37880454    -0.82900
C44         C  0.11841438  0.37957128  0.39173920     0.92600
O45         O  0.09945022  0.24814618  0.27629594    -0.82900
Mg46       Mg  0.24328333  0.33203979  0.31288125     1.58200
O47         O  0.07022768  0.35813815  0.33831871    -0.81200
O48         O  0.28633350  0.33205752  0.35631916    -0.82900
C49         C  0.33103683  0.18015740  0.18036218     0.02100
C50         C  0.33590964  0.14854615  0.18183436     0.02100
C51         C  0.35851492  0.14345796  0.16887137    -0.18400
C52         C  0.37576860  0.16873000  0.15425892     0.02100
C53         C  0.37095359  0.20025044  0.15274318     0.02100
C54         C  0.34860219  0.20561193  0.16574021    -0.18400
H55         H  0.34538380  0.23014833  0.16463556     0.04100
H56         H  0.36162800  0.11882978  0.16980403     0.04100
C57         C  0.83448816  0.12525910  0.17879990     0.02100
C58         C  0.86825685  0.16045049  0.17917704     0.02100
C59         C  0.87475147  0.18659356  0.16508764    -0.18400
C60         C  0.84851426  0.17822099  0.15074124     0.02100
C61         C  0.81567403  0.14229677  0.14999966     0.02100
C62         C  0.80909407  0.11641964  0.16413504    -0.18400
H63         H  0.78340396  0.08921701  0.16393653     0.04100
H64         H  0.90020164  0.21394859  0.16542636     0.04100
O65         O  0.24224373  0.87916601  0.33797994    -0.88500
C66         C  0.15427130  0.83092843  0.37404926     0.87500
Mg67       Mg  0.24398169  0.91364648  0.31512387     1.58100
O68         O  0.16137999  0.76903579  0.34302314    -0.88200
O69         O  0.24832136  0.83049938  0.34446801    -0.75600
C70         C  0.07548181  0.81027140  0.27486478     0.92600
O71         O  0.18808687  0.90961296  0.35079099    -0.75400
O72         O  0.09964123  0.84537090  0.27614618    -0.82900
Mg73       Mg  0.22872565  0.89302547  0.36422859     1.58000
C74         C  0.06291177  0.69119578  0.31529335     0.92500
O75         O  0.27092988  0.88201967  0.38017723    -0.81100
H76         H  0.19102041  0.74752054  0.33178097    -0.06500
C77         C  0.08867808  0.80611135  0.32784368     0.87400
O78         O  0.22529531  0.86426687  0.29521325    -0.75700
O79         O  0.18425853  0.83606904  0.36735925    -0.88400
O80         O  0.07701175  0.70033241  0.33138372    -0.81200
C81         C  0.12375363  0.72540499  0.38651307     0.92600
C82         C  0.27094217  0.85624280  0.38993782     0.92500
Mg83       Mg  0.12054003  0.77532136  0.29977549     1.58000
O84         O  0.07942706  0.78598778  0.28389373    -0.81100
O85         O  0.16143199  0.75944705  0.31328824    -0.75400
O86         O  0.15726576  0.75371442  0.38686314    -0.81200
O87         O  0.27602909  0.95245706  0.36130114    -0.82900
O88         O  0.18913108  0.91563344  0.27726418    -0.81300
C89         C  0.17174927  0.75789049  0.32961395     0.86900
O90         O  0.16370205  0.83269327  0.29660706    -0.88400
O91         O  0.10605231  0.78895415  0.32594937    -0.88500
O92         O  0.09931973  0.83739225  0.31988024    -0.75600
Mg93       Mg  0.20110017  0.79432279  0.36529943     1.58000
O94         O  0.10168629  0.71945313  0.37303129    -0.82900
H95         H  0.28356936  0.87259887  0.32721769    -0.06700
O96         O  0.18656743  0.89947935  0.32101257    -0.88200
H97         H  0.15791892  0.92165648  0.33269275    -0.06500
H98         H  0.19274042  0.81901864  0.27918096    -0.06700
C99         C  0.17699367  0.91096359  0.33459176     0.86900
C100        C  0.25922446  0.86158406  0.33622164     0.87500
C101        C  0.19358146  0.83803357  0.28969702     0.87500
H102        H  0.06433536  0.79465125  0.33686377    -0.06600
O103        O  0.12263180  0.80436006  0.36862070    -0.75700
Mg104      Mg  0.14571963  0.87400797  0.29892808     1.58000
H105        H  0.15494887  0.85019737  0.38437322    -0.06700
C106        C  0.28646648  0.97687742  0.34858313     0.92500
O107        O  0.24555036  0.94799374  0.29068344    -0.82900
C108        C  0.22332617  0.94287571  0.27736017     0.92600
O109        O  0.24472226  0.82199112  0.38855852    -0.82900
Mg110      Mg  0.10399795  0.75470345  0.34878566     1.58200
O111        O  0.27164699  0.96873281  0.33258388    -0.81200
O112        O  0.07353241  0.71504081  0.30228137    -0.82900
O113        O  0.64530571  0.76472825  0.33882780    -0.88500
C114        C  0.68049047  0.84480345  0.37868193     0.87500
Mg115      Mg  0.68058000  0.76539541  0.31652820     1.58100
O116        O  0.61516669  0.84389882  0.34719964    -0.88200
O117        O  0.58952723  0.75744033  0.34473172    -0.75600
C118        C  0.74717734  0.93444024  0.28075798     0.92600
O119        O  0.72883384  0.81677548  0.35419952    -0.75400
O120        O  0.75701442  0.90959479  0.28142241    -0.82900
Mg121      Mg  0.67004511  0.77408759  0.36563536     1.58000
C122        C  0.64084179  0.94603689  0.32224985     0.92500
O123        O  0.61603546  0.73049629  0.37925989    -0.81100
H124        H  0.56494366  0.81733740  0.33478543    -0.06500
C125        C  0.72783133  0.91732920  0.33408868     0.87400
O126        O  0.65157803  0.78593570  0.29651273    -0.75700
O127        O  0.65637491  0.81678198  0.37045180    -0.88400
O128        O  0.63487273  0.93061365  0.33811525    -0.81200
C129        C  0.60572938  0.87413204  0.39184296     0.92600
C130        C  0.58763359  0.72573238  0.38855295     0.92500
Mg131      Mg  0.66717717  0.88960679  0.30539916     1.58000
O132        O  0.72059540  0.93217321  0.29077804    -0.81100
O133        O  0.60879080  0.84818017  0.31744915    -0.75400
O134        O  0.59781527  0.83986641  0.39053120    -0.81200
O135        O  0.68241396  0.72746106  0.36158089    -0.82900
O136        O  0.73872515  0.82340565  0.28057067    -0.81300
C137        C  0.59503281  0.83607289  0.33337423     0.86900
O138        O  0.68058848  0.84640480  0.30103615    -0.88400
O139        O  0.69321696  0.90015684  0.33200799    -0.88500
O140        O  0.74890056  0.90794352  0.32547637    -0.75600
Mg141      Mg  0.59743402  0.79988607  0.36753920     1.58000
O142        O  0.62472606  0.89855997  0.37950900    -0.82900
H143        H  0.59865118  0.72603471  0.32607320    -0.06700
O144        O  0.72318865  0.82136923  0.32439332    -0.88200
H145        H  0.77291612  0.84913409  0.33722876    -0.06500
H146        H  0.64065318  0.82142058  0.28185352    -0.06700
C147        C  0.74293405  0.82962817  0.33839196     0.86900
C148        C  0.61085991  0.74831128  0.33616733     0.87500
C149        C  0.65727140  0.81837823  0.29253121     0.87500
H150        H  0.74042800  0.94050632  0.34368814    -0.06600
O151        O  0.68748662  0.87753547  0.37436082    -0.75700
Mg152      Mg  0.73963998  0.86371117  0.30341281     1.58000
H153        H  0.69705866  0.84147379  0.38928852    -0.06700
C154        C  0.69822558  0.71953814  0.34873229     0.92500
O155        O  0.71682144  0.76660981  0.29301938    -0.82900
C156        C  0.73422534  0.79032978  0.28025011     0.92600
O157        O  0.57764192  0.75061055  0.38868396    -0.82900
Mg158      Mg  0.65925240  0.89968819  0.35491740     1.58200
O159        O  0.70692418  0.73710267  0.33345576    -0.81200
O160        O  0.65468534  0.93650565  0.30908407    -0.82900
C161        C  0.83381571  0.69346623  0.18061752     0.02100
C162        C  0.86552846  0.68853677  0.18142952     0.02100
C163        C  0.86890357  0.66474643  0.16856016    -0.18400
C164        C  0.84193847  0.64671315  0.15457042     0.02100
C165        C  0.81059373  0.65237511  0.15363603     0.02100
C166        C  0.80705791  0.67566531  0.16665796    -0.18400
H167        H  0.78243091  0.67900186  0.16627646     0.04100
H168        H  0.89341848  0.66126197  0.16906043     0.04100
O169        O  0.46156241  0.02507104  0.00395306    -0.88500
C170        C  0.49473439  0.97726921  0.04299083     0.87500
Mg171      Mg  0.42574488  0.99429665  0.98071109     1.58100
O172        O  0.56413859  0.04251097  0.01268166    -0.88200
O173        O  0.51160994  0.07748052  0.01213182    -0.75600
C174        C  0.51508870  0.91511910  0.94334653     0.92600
O175        O  0.41988014  0.94057191  0.01713833    -0.75400
O176        O  0.48153259  0.90962111  0.94362916    -0.82900
Mg177      Mg  0.44126713  0.99928262  0.03027009     1.58000
C178        C  0.63512098  0.01101416  0.98859338     0.92500
O179        O  0.45792139  0.05452065  0.04553862    -0.81100
H180        H  0.59215034  0.09377728  0.00139092    -0.06500
C181        C  0.51683162  0.93137750  0.99646208     0.87400
O182        O  0.47645752  0.02183881  0.96106831    -0.75700
O183        O  0.49492556  0.00476617  0.03604059    -0.88400
O184        O  0.62491439  0.02011099  0.00329519    -0.81200
C185        C  0.60402645  0.04416385  0.05690571     0.92600
C186        C  0.48384848  0.07783636  0.05619650     0.92500
Mg187      Mg  0.55660986  0.99354949  0.96942381     1.58000
O188        O  0.54105298  0.93964781  0.95355181    -0.81100
O189        O  0.57745515  0.05136520  0.98308809    -0.75400
O190        O  0.58021529  0.05568481  0.05663498    -0.81200
O191        O  0.38558119  0.99614750  0.02473051    -0.82900
O192        O  0.41563541  0.93307279  0.94365637    -0.81300
C193        C  0.57874549  0.06374914  0.99930678     0.86900
O194        O  0.50188345  0.98649946  0.96392121    -0.88400
O195        O  0.53611232  0.96592082  0.99538587    -0.88500
O196        O  0.48666618  0.91317007  0.98726938    -0.75600
Mg197      Mg  0.54217828  0.06171385  0.03410622     1.58000
O198        O  0.60506585  0.02365596  0.04408311    -0.82900
H199        H  0.47397171  0.07472969  0.99312292    -0.06700
O200        O  0.43329182  0.94775297  0.98749618    -0.88200
H201        H  0.40577472  0.89713330  0.99952079    -0.06500
H202        H  0.52160445  0.02931148  0.94603766    -0.06700
C203        C  0.41897649  0.92725555  0.00115569     0.86900
C204        C  0.48176008  0.05953618  0.00261721     0.87500
C205        C  0.50072994  0.01283412  0.95639099     0.87500
H206        H  0.52556174  0.91638736  0.00557977    -0.06600
O207        O  0.51799868  0.96723437  0.03792899    -0.75700
Mg208      Mg  0.45535588  0.92879092  0.96587836     1.58000
H209        H  0.47326087  0.96047953  0.05304656    -0.06700
C210        C  0.36311001  0.98094655  0.01136695     0.92500
O211        O  0.38854270  0.96319711  0.95602622    -0.82900
C212        C  0.39048618  0.94289459  0.94330304     0.92600
O213        O  0.51676032  0.08176561  0.05623514    -0.82900
Mg214      Mg  0.56985792  0.99470244  0.01910274     1.58200
O215        O  0.37184316  0.96754880  0.99773206    -0.81200
O216        O  0.61355057  0.99846198  0.97468739    -0.82900
O217        O  0.55246390  0.56385183  0.99288033    -0.88500
C218        C  0.50239184  0.47844216  0.95543710     0.87500
Mg219      Mg  0.58653600  0.56561014  0.01571521     1.58100
O220        O  0.44165058  0.48454122  0.98782406    -0.88200
O221        O  0.50419503  0.57118915  0.98702724    -0.75600
C222        C  0.48513007  0.39674755  0.05402194     0.92600
O223        O  0.58153093  0.50881566  0.97953409    -0.75400
O224        O  0.51970743  0.42258800  0.05347711    -0.82900
Mg225      Mg  0.56586856  0.55002953  0.96650222     1.58000
C226        C  0.36458314  0.38401550  0.01473096     0.92500
O227        O  0.55579019  0.59204001  0.95109672    -0.81100
H228        H  0.41893945  0.51222333  0.99996755    -0.06500
C229        C  0.48071982  0.41227522  0.00121510     0.87400
O230        O  0.53633051  0.54592978  0.03544328    -0.75700
O231        O  0.50810150  0.50756714  0.96313487    -0.88400
O232        O  0.37299397  0.40028024  0.99908226    -0.81200
C233        C  0.39510183  0.45004826  0.94509971     0.92600
C234        C  0.53144566  0.59627756  0.94224212     0.92500
Mg235      Mg  0.44851475  0.44073441  0.03001072     1.58000
O236        O  0.46019373  0.39893588  0.04460540    -0.81100
O237        O  0.43125269  0.48158659  0.01761182    -0.75400
O238        O  0.42355973  0.48354374  0.94439535    -0.81200
O239        O  0.62634505  0.59589963  0.96917808    -0.82900
O240        O  0.58750644  0.51045526  0.05303735    -0.81300
C241        C  0.42989229  0.49333532  0.00157236     0.86900
O242        O  0.50543242  0.48472888  0.03335780    -0.88400
O243        O  0.46279839  0.42883510  0.00342229    -0.88500
O244        O  0.51174787  0.42260082  0.00948610    -0.75600
Mg245      Mg  0.46700503  0.52581448  0.96599613     1.58000
O246        O  0.39112490  0.42738921  0.95800179    -0.82900
H247        H  0.54704489  0.60532025  0.00405319    -0.06700
O248        O  0.57333948  0.50899700  0.00943697    -0.88200
H249        H  0.59455003  0.47960358  0.99769751    -0.06500
H250        H  0.49031513  0.51215731  0.05101101    -0.06700
C251        C  0.58404843  0.49879860  0.99579134     0.86900
C252        C  0.53545827  0.58132209  0.99493817     0.87500
C253        C  0.51000434  0.51389925  0.04056356     0.87500
H254        H  0.47003558  0.38878026  0.99180960    -0.06600
O255        O  0.47583595  0.44654501  0.96054424    -0.75700
Mg256      Mg  0.54759261  0.46804791  0.03100645     1.58000
H257        H  0.52121333  0.48006972  0.94453958    -0.06700
C258        C  0.65040374  0.60689433  0.98207585     0.92500
O259        O  0.62066039  0.56752898  0.04042399    -0.82900
C260        C  0.61441213  0.54462679  0.05359176     0.92600
O261        O  0.49617077  0.57222920  0.94349352    -0.82900
Mg262      Mg  0.42725929  0.42772939  0.98122811     1.58200
O263        O  0.64146700  0.59358491  0.99836391    -0.81200
O264        O  0.38894501  0.39301643  0.02734005    -0.82900
O265        O  0.02058333  0.45485014  0.99705707    -0.88500
C266        C  0.98024075  0.50270039  0.96134836     0.87500
Mg267      Mg  0.98941453  0.42061302  0.02021134     1.58100
O268        O  0.05077506  0.56460678  0.99195495    -0.88200
O269        O  0.07556198  0.50318585  0.98991292    -0.75600
C270        C  0.92372068  0.52083669  0.06173633     0.92600
O271        O  0.93453185  0.42330093  0.98555857    -0.75400
O272        O  0.91562502  0.48655242  0.06111007    -0.82900
Mg273      Mg  0.99108767  0.43981700  0.97128804     1.58000
C274        C  0.03143361  0.64226578  0.02024748     0.92500
O275        O  0.04237091  0.45104355  0.95474670    -0.81100
H276        H  0.10206098  0.58630426  0.00314918    -0.06500
C277        C  0.94048053  0.52607278  0.00855916     0.87400
O278        O  0.02091496  0.47019733  0.03998299    -0.75700
O279        O  0.00489466  0.49733032  0.96793156    -0.88400
O280        O  0.03662084  0.63299989  0.00422290    -0.81200
C281        C  0.05801085  0.60997989  0.94887658     0.92600
C282        C  0.06975504  0.47526727  0.94509465     0.92500
Mg283      Mg  0.00344514  0.55799036  0.03589548     1.58000
O284        O  0.95010408  0.54626886  0.05194251    -0.81100
O285        O  0.06034485  0.57428817  0.02175412    -0.75400
O286        O  0.06290934  0.58158530  0.94770739    -0.81200
O287        O  0.97873363  0.37933317  0.97392081    -0.82900
O288        O  0.93314189  0.41625029  0.05899171    -0.81300
C289        C  0.07229407  0.57577521  0.00536850     0.86900
O290        O  0.99028373  0.50089280  0.03928554    -0.88400
O291        O  0.97526380  0.54384737  0.00986739    -0.88500
O292        O  0.92046976  0.49517493  0.01707708    -0.75600
Mg293      Mg  0.06467422  0.53923781  0.96928317     1.58000
O294        O  0.04108077  0.61429539  0.96257741    -0.82900
H295        H  0.06886749  0.46131746  0.00711436    -0.06700
O296        O  0.94540802  0.43370757  0.01516120    -0.88200
H297        H  0.89353872  0.41116971  0.00458513    -0.06500
H298        H  0.03414451  0.51553774  0.05602148    -0.06700
C299        C  0.92325103  0.42194612  0.00203339     0.86900
C300        C  0.05535545  0.47227208  0.99832879     0.87500
C301        C  0.01547280  0.49621330  0.04572306     0.87500
H302        H  0.92676420  0.53679932  0.99976590    -0.06600
O303        O  0.97563947  0.52938822  0.96688560    -0.75700
Mg304      Mg  0.93121659  0.45864362  0.03770625     1.58000
H305        H  0.96143621  0.48356574  0.95103094    -0.06700
C306        C  0.96620526  0.35604753  0.98722716     0.92500
O307        O  0.95720787  0.38530229  0.04440861    -0.82900
C308        C  0.93943625  0.38875057  0.05794100     0.92600
O309        O  0.08036836  0.51026759  0.94605216    -0.82900
Mg310      Mg  0.00763834  0.57867408  0.98681142     1.58200
O311        O  0.96166872  0.36588193  0.00323336    -0.81200
O312        O  0.01688420  0.61827947  0.03317728    -0.82900
O313        O  0.30254871  0.09950372  0.67208292    -0.88500
C314        C  0.34251379  0.18115738  0.70992511     0.87500
Mg315      Mg  0.33509582  0.09955739  0.64880607     1.58100
O316        O  0.27375084  0.17631246  0.67910334    -0.88200
O317        O  0.24654070  0.08936703  0.67928697    -0.75600
C318        C  0.40038323  0.26586376  0.60917893     0.92600
O319        O  0.38684815  0.15146578  0.68417129    -0.75400
O320        O  0.40993465  0.24070762  0.60966803    -0.82900
Mg321      Mg  0.32987699  0.10865205  0.69800732     1.58000
C322        C  0.29720266  0.27791377  0.65432257     0.92500
O323        O  0.27689892  0.06590379  0.71414163    -0.81100
H324        H  0.22250008  0.14860079  0.66772593    -0.06500
C325        C  0.38428211  0.25102571  0.66262723     0.87400
O326        O  0.30216375  0.11667934  0.62958329    -0.75700
O327        O  0.31676117  0.15169008  0.70340978    -0.88400
O328        O  0.28927778  0.25978247  0.66943898    -0.81200
C329        C  0.26678132  0.21094954  0.72338870     0.92600
C330        C  0.24948667  0.06332459  0.72373019     0.92500
Mg331      Mg  0.32133608  0.22149984  0.63566849     1.58000
O332        O  0.37366759  0.26344738  0.61924292    -0.81100
O333        O  0.26445992  0.18011124  0.64954937    -0.75400
O334        O  0.25842216  0.17651886  0.72288113    -0.81200
O335        O  0.34068187  0.06076806  0.69231894    -0.82900
O336        O  0.39182715  0.15308274  0.61021656    -0.81300
C337        C  0.25234664  0.16779729  0.66570939     0.86900
O338        O  0.33401186  0.17811095  0.63041973    -0.88400
O339        O  0.34956619  0.23214193  0.66165979    -0.88500
O340        O  0.40515081  0.24233487  0.65340375    -0.75600
Mg341      Mg  0.25738636  0.13478656  0.70074191     1.58000
O342        O  0.28579071  0.23399163  0.71059750    -0.82900
H343        H  0.25568267  0.05697743  0.66127082    -0.06700
O344        O  0.37790291  0.15611271  0.65460486    -0.88200
H345        H  0.42878234  0.18488076  0.66632133    -0.06500
H346        H  0.28980514  0.14970826  0.61374948    -0.06700
C347        C  0.39906442  0.16488044  0.66813152     0.86900
C348        C  0.26793990  0.08076030  0.67052181     0.87500
C349        C  0.30838681  0.14849036  0.62391904     0.87500
H350        H  0.39713731  0.27518049  0.67163484    -0.06600
O351        O  0.34902145  0.21307468  0.70432449    -0.75700
Mg352      Mg  0.39365987  0.19591281  0.63231606     1.58000
H353        H  0.36105462  0.17970413  0.72004109    -0.06700
C354        C  0.35734592  0.05622724  0.67863973     0.92500
O355        O  0.36651930  0.09765315  0.62430358    -0.82900
C356        C  0.38399028  0.11880810  0.61075163     0.92600
O357        O  0.23990135  0.08846501  0.72286310    -0.82900
Mg358      Mg  0.31777818  0.23273046  0.68543780     1.58200
O359        O  0.36836667  0.07881483  0.66512244    -0.81200
O360        O  0.31069998  0.26926394  0.64066597    -0.82900
C361        C  0.19042849  0.35698989  0.84900554     0.02100
C362        C  0.15447157  0.35372389  0.84997843     0.02100
C363        C  0.12757506  0.33324327  0.83630698    -0.18400
C364        C  0.13605207  0.31673076  0.82137683     0.02100
C365        C  0.17256975  0.32100325  0.82015626     0.02100
C366        C  0.19920264  0.34119344  0.83398205    -0.18400
H367        H  0.22667877  0.34334104  0.83344285     0.04100
H368        H  0.10002439  0.33087513  0.83706650     0.04100
C369        C  0.14438360  0.80968535  0.84995361     0.02100
C370        C  0.17777099  0.84552552  0.84941936     0.02100
C371        C  0.18240509  0.87025349  0.83487933    -0.18400
C372        C  0.15482206  0.86058638  0.82109760     0.02100
C373        C  0.12099371  0.82539274  0.82192831     0.02100
C374        C  0.11639300  0.80034409  0.83632883    -0.18400
H375        H  0.09062993  0.77326896  0.83699097     0.04100
H376        H  0.20815769  0.89733007  0.83411347     0.04100
O377        O  0.89186896  0.21588049  0.67455983    -0.88500
C378        C  0.81082547  0.17920769  0.71339002     0.87500
Mg379      Mg  0.89265031  0.24813267  0.65077587     1.58100
O380        O  0.81174622  0.11130342  0.68379690    -0.88200
O381        O  0.89970048  0.16946998  0.68312940    -0.75600
C382        C  0.72300922  0.14596887  0.61291355     0.92600
O383        O  0.84366998  0.25216227  0.68647620    -0.75400
O384        O  0.74972885  0.18026513  0.61270584    -0.82900
Mg385      Mg  0.88556940  0.23682049  0.70028113     1.58000
C386        C  0.70881379  0.03358728  0.65975999     0.92500
O387        O  0.92811599  0.22573179  0.71624197    -0.81100
H388        H  0.83859390  0.08681818  0.67255899    -0.06500
C389        C  0.73929519  0.14910607  0.66672465     0.87400
O390        O  0.87280359  0.19659666  0.63225138    -0.75700
O391        O  0.83990641  0.18155723  0.70698513    -0.88400
O392        O  0.72570004  0.04407717  0.67516148    -0.81200
C393        C  0.77618575  0.07185185  0.72828232     0.92600
C394        C  0.92782556  0.20098392  0.72700219     0.92500
Mg395      Mg  0.76652436  0.11275632  0.64028102     1.58000
O396        O  0.72344815  0.12208052  0.62397025    -0.81100
O397        O  0.80747859  0.09726520  0.65432597    -0.75400
O398        O  0.81118720  0.09722702  0.72790152    -0.81200
O399        O  0.93619470  0.29388348  0.69304145    -0.82900
O400        O  0.83833585  0.24914960  0.61276903    -0.81300
C401        C  0.81976821  0.09775494  0.67048337     0.86900
O402        O  0.81125887  0.16795403  0.63425586    -0.88400
O403        O  0.75720963  0.13238084  0.66599791    -0.88500
O404        O  0.74872813  0.17813957  0.65698223    -0.75600
Mg405      Mg  0.85390245  0.13717052  0.70520648     1.58000
O406        O  0.75366993  0.06893546  0.71554569    -0.82900
H407        H  0.93275281  0.20836143  0.66400531    -0.06700
O408        O  0.83645381  0.23605953  0.65717156    -0.88200
H409        H  0.81002583  0.26057831  0.66889961    -0.06500
H410        H  0.83781469  0.15009795  0.61748623    -0.06700
C411        C  0.82927550  0.25004371  0.67062091     0.86900
C412        C  0.90922155  0.19863307  0.67346226     0.87500
C413        C  0.84024060  0.17085656  0.62736666     0.87500
H414        H  0.71536192  0.13905164  0.67594827    -0.06600
O415        O  0.77832653  0.15378446  0.70824746    -0.75700
Mg416      Mg  0.79524162  0.21054205  0.63530922     1.58000
H417        H  0.81313991  0.20023115  0.72307267    -0.06700
C418        C  0.94096876  0.31446153  0.67908910     0.92500
O419        O  0.89492253  0.28116734  0.62577388    -0.82900
C420        C  0.87263142  0.27605407  0.61255179     0.92600
O421        O  0.90038128  0.16702628  0.72715866    -0.82900
Mg422      Mg  0.75585762  0.10113887  0.69019962     1.58200
O423        O  0.91635029  0.30348093  0.66649848    -0.81200
O424        O  0.71852369  0.05536298  0.64596110    -0.82900
O425        O  0.75930766  0.64302854  0.65741559    -0.88500
C426        C  0.84887115  0.68751637  0.62170431     0.87500
Mg427      Mg  0.75359470  0.67295050  0.68037297     1.58100
O428        O  0.84405662  0.61912227  0.65239698    -0.88200
O429        O  0.75645330  0.58986308  0.65052367    -0.75600
C430        C  0.91962473  0.74209204  0.72349599     0.92600
O431        O  0.81117477  0.72902395  0.64570676    -0.75400
O432        O  0.89264609  0.74914830  0.72233013    -0.82900
Mg433      Mg  0.77351475  0.67192556  0.63150968     1.58000
C434        C  0.94231315  0.64396548  0.68065475     0.92500
O435        O  0.73457483  0.61891500  0.61545222    -0.81100
H436        H  0.81675391  0.56730593  0.66309593    -0.06500
C437        C  0.91093746  0.72925071  0.66913537     0.87400
O438        O  0.77358426  0.64318273  0.70026789    -0.75700
O439        O  0.81955348  0.66179985  0.62848557    -0.88400
O440        O  0.92799122  0.63773407  0.66459807    -0.81200
C441        C  0.88386406  0.61504784  0.60920900     0.92600
C442        C  0.73464029  0.59306156  0.60586524     0.92500
Mg443      Mg  0.88151017  0.66555754  0.69623136     1.58000
O444        O  0.92109718  0.71800620  0.71303149    -0.81100
O445        O  0.84371199  0.60858195  0.68204509    -0.75400
O446        O  0.84968859  0.60794053  0.60880864    -0.81200
O447        O  0.72415433  0.68124202  0.63367219    -0.82900
O448        O  0.80352799  0.72747802  0.71937322    -0.74100
C449        C  0.83445019  0.59710794  0.66558399     0.86900
O450        O  0.83513649  0.67535580  0.69929495    -0.88400
O451        O  0.89539694  0.69463570  0.67028018    -0.88500
O452        O  0.89836026  0.74763352  0.67775939    -0.75600
Mg453      Mg  0.80481989  0.60344440  0.63003323     1.58000
O454        O  0.90569753  0.63287062  0.62255505    -0.82900
H455        H  0.71913597  0.59375033  0.66754812    -0.06700
O456        O  0.81040647  0.71873007  0.67545167    -0.88200
H457        H  0.83800211  0.77043975  0.66461415    -0.06500
H458        H  0.80699597  0.63123595  0.71608649    -0.06700
C459        C  0.82027374  0.74062233  0.66218240     0.86900
C460        C  0.74375323  0.60846127  0.65880360     0.87500
C461        C  0.80558060  0.64951708  0.70581202     0.87500
H462        H  0.93553578  0.74422079  0.66040144    -0.06600
O463        O  0.88105749  0.69428062  0.62715396    -0.75700
Mg464      Mg  0.84962651  0.73345060  0.69826136     1.58000
H465        H  0.84706686  0.70541813  0.61133273    -0.06700
C466        C  0.71095128  0.69256502  0.64636734     0.92500
O467        O  0.74837381  0.70374157  0.70477666    -0.82900
C468        C  0.76936277  0.72046896  0.71853012     0.92600
O469        O  0.76157560  0.58605562  0.60665025    -0.82900
Mg470      Mg  0.90059789  0.66429179  0.64709349     1.58200
O471        O  0.72386062  0.69790006  0.66275279    -0.81200
O472        O  0.93087495  0.65650471  0.69358742    -0.82900
C473        C  0.63523751  0.80127839  0.84601065     0.02100
C474        C  0.62678198  0.83048086  0.84465354     0.02100
C475        C  0.63973129  0.85472850  0.82938060    -0.18400
C476        C  0.66103932  0.85064164  0.81526365     0.02100
C477        C  0.66881011  0.82078327  0.81646040     0.02100
C478        C  0.65633851  0.79692740  0.83195212    -0.18400
H479        H  0.66174011  0.77370634  0.83269952     0.04100
H480        H  0.63424841  0.87790910  0.82884563     0.04100
C481        C  0.02398510  0.52692046  0.48559298     0.02100
C482        C  0.01730186  0.48973909  0.48441619     0.02100
C483        C  0.99556487  0.46358516  0.49810997    -0.18400
C484        C  0.98056709  0.47366755  0.51298811     0.02100
C485        C  0.98700584  0.51067084  0.51415938     0.02100
C486        C  0.00887427  0.53692833  0.50052443    -0.18400
H487        H  0.01315259  0.56515101  0.50123543     0.04100
H488        H  0.99122854  0.43532964  0.49748351     0.04100
C489        C  0.50934086  0.52217824  0.48384737     0.02100
C490        C  0.47284331  0.49023495  0.48555242     0.02100
C491        C  0.46473728  0.46556196  0.50049760    -0.18400
C492        C  0.49247167  0.47154867  0.51353883     0.02100
C493        C  0.52901785  0.50338423  0.51178091     0.02100
C494        C  0.53711149  0.52813515  0.49686307    -0.18400
H495        H  0.56488720  0.55293596  0.49571195     0.04100
H496        H  0.43697302  0.44074403  0.50163845     0.04100
C497        C  0.46589130  0.96525566  0.49059919     0.02100
C498        C  0.50347797  0.97242555  0.49023809     0.02100
C499        C  0.52897208  0.99541730  0.50395594    -0.18400
C500        C  0.51800298  0.01128199  0.51815616     0.02100
C501        C  0.48017018  0.00344750  0.51860942     0.02100
C502        C  0.45461858  0.98030233  0.50499230    -0.18400
H503        H  0.42596792  0.97527081  0.50516435     0.04100
H504        H  0.55766043  0.00059300  0.50372867     0.04100
O505        O  0.95012876  0.00863397  0.98704008    -0.88500
C506        C  0.02166187  0.06355877  0.02962487     0.87500
Mg507      Mg  0.91192485  0.94899019  0.98641837     1.58100
O508        O  0.06478045  0.05205642  0.99018333    -0.88200
O509        O  0.99548590  0.05142665  0.96998474    -0.75600
C510        C  0.01558957  0.87475601  0.01264005     0.92600
O511        O  0.93770020  0.98822678  0.03021373    -0.75400
O512        O  0.98194560  0.86835607  0.01443363    -0.82900
Mg513      Mg  0.95033985  0.03824987  0.01168075     1.58000
C514        C  0.13981124  0.01269195  0.99650721     0.92500
O515        O  0.95880617  0.09105994  0.99655462    -0.81100
H516        H  0.07615965  0.05992992  0.96323122    -0.06500
C517        C  0.03820316  0.97368887  0.03095280     0.87400
O518        O  0.95314099  0.93944684  0.96925679    -0.75700
O519        O  0.00958937  0.06081214  0.01380440    -0.88400
O520        O  0.13638133  0.04005749  0.00238950    -0.81200
C521        C  0.12394306  0.13797894  0.01343744     0.92600
C522        C  0.98510694  0.12280292  0.99077160     0.92500
Mg523      Mg  0.05014651  0.95817664  0.99107812     1.58000
O524        O  0.04206723  0.90598869  0.00653024    -0.81100
O525        O  0.06266887  0.00807269  0.97241008    -0.75400
O526        O  0.09348573  0.13388082  0.00652232    -0.81200
O527        O  0.88822834  0.01470366  0.00953826    -0.82900
O528        O  0.90894559  0.86388993  0.99580801    -0.81300
C529        C  0.06873366  0.04118284  0.97491542     0.86900
O530        O  0.99140476  0.93631517  0.98908253    -0.88400
O531        O  0.05080470  0.98802267  0.01571587    -0.88500
O532        O  0.00494299  0.94607156  0.03289617    -0.75600
Mg533      Mg  0.04283585  0.08979467  0.98978190     1.58000
O534        O  0.12887271  0.11019163  0.01630590    -0.82900
H535        H  0.94506149  0.01147047  0.95980042    -0.06700
O536        O  0.93563057  0.94444233  0.01229942    -0.88200
H537        H  0.92378471  0.93614771  0.03919922    -0.06500
H538        H  0.99384158  0.92745369  0.96218232    -0.06700
C539        C  0.93143515  0.95509190  0.02758176     0.86900
C540        C  0.96243966  0.02344113  0.97186978     0.87500
C541        C  0.97981712  0.93351842  0.97316393     0.87500
H542        H  0.05549256  0.98586347  0.04303121    -0.06600
O543        O  0.04858240  0.05776554  0.03322201    -0.75700
Mg544      Mg  0.95805378  0.90752311  0.01296526     1.58000
H545        H  0.00802619  0.06967281  0.04077766    -0.06700
C546        C  0.86041941  0.98276903  0.00540529     0.92500
O547        O  0.87266908  0.88570350  0.98496399    -0.82900
C548        C  0.87895402  0.85878499  0.98796551     0.92600
O549        O  0.01886630  0.12953326  0.98869343    -0.82900
Mg550      Mg  0.08923627  0.04748456  0.01581488     1.58200
O551        O  0.86449848  0.95572539  0.99963594    -0.81200
O552        O  0.11161055  0.98085612  0.99277472    -0.82900
O553        O  0.70915299  0.30704510  0.31870209    -0.88500
C554        C  0.63913421  0.27016324  0.36287578     0.87500
Mg555      Mg  0.75890629  0.36167525  0.31867702     1.58100
O556        O  0.60516198  0.29493417  0.32398400    -0.88200
O557        O  0.65791982  0.27213789  0.30285295    -0.75600
C558        C  0.70171918  0.47903166  0.34220937     0.92600
O559        O  0.72907883  0.32674319  0.36105388    -0.75400
O560        O  0.73168863  0.47712949  0.34135076    -0.82900
Mg561      Mg  0.70258422  0.27371799  0.34249967     1.58000
C562        C  0.55555562  0.35991526  0.33019962     0.92500
O563        O  0.67739251  0.21757365  0.32604064    -0.81100
H564        H  0.58927636  0.28708784  0.29758081    -0.06500
C565        C  0.65348432  0.37765575  0.36291749     0.87400
O566        O  0.72931776  0.38456866  0.30025255    -0.75700
O567        O  0.64808892  0.26786873  0.34685202    -0.88400
O568        O  0.55307556  0.32913248  0.33517206    -0.81200
C569        C  0.53102584  0.21881574  0.34912031     0.92600
C570        C  0.64410689  0.19010094  0.32320281     0.92500
Mg571      Mg  0.64429189  0.39487786  0.32364581     1.58000
O572        O  0.66924115  0.45063145  0.33927349    -0.81100
O573        O  0.61620440  0.34169611  0.30566506    -0.75400
O574        O  0.55701983  0.21327721  0.34294132    -0.81200
O575        O  0.76102582  0.28053269  0.33831964    -0.82900
O576        O  0.78876159  0.45649651  0.32322853    -0.81300
C577        C  0.60257158  0.30680863  0.30872980     0.86900
O578        O  0.69852557  0.40031951  0.31958547    -0.88400
O579        O  0.63812842  0.36296493  0.34820068    -0.88500
O580        O  0.68884660  0.40000894  0.36384847    -0.75600
Mg581      Mg  0.60967462  0.24546961  0.32420518     1.58000
O582        O  0.53563458  0.25157036  0.35086086    -0.82900
H583        H  0.71014970  0.30158446  0.29135703    -0.06700
O584        O  0.73996488  0.37459202  0.34344972    -0.88200
H585        H  0.75299542  0.38057373  0.37025202    -0.06500
H586        H  0.69862972  0.40854758  0.29240792    -0.06700
C587        C  0.74136462  0.36170873  0.35865807     0.86900
C588        C  0.69342358  0.29387249  0.30384015     0.87500
C589        C  0.70848982  0.39859785  0.30368430     0.87500
H590        H  0.63657168  0.37082633  0.37531246    -0.06600
O591        O  0.61939800  0.28521922  0.36667313    -0.75700
Mg592      Mg  0.73661713  0.42490859  0.34227162     1.58000
H593        H  0.64925109  0.26006274  0.37398037    -0.06700
C594        C  0.79194277  0.31171446  0.33804524     0.92500
O595        O  0.81191061  0.41859112  0.31843382    -0.82900
C596        C  0.81584601  0.45118267  0.31887892     0.92600
O597        O  0.61510302  0.19373344  0.32407049    -0.82900
Mg598      Mg  0.58855627  0.30854801  0.34949426     1.58200
O599        O  0.79307075  0.34267731  0.33521718    -0.81200
O600        O  0.58704060  0.38968015  0.32757718    -0.82900
O601        O  0.27678291  0.68884514  0.64826758    -0.88500
C602        C  0.35830198  0.72862066  0.68705774     0.87500
Mg603      Mg  0.23513094  0.63101454  0.64765503     1.58100
O604        O  0.38617661  0.71465099  0.64312550    -0.88200
O605        O  0.32016515  0.72836843  0.62949702    -0.75600
C606        C  0.32066129  0.53220861  0.65734616     0.92600
O607        O  0.27076293  0.66237505  0.69067765    -0.75400
O608        O  0.29089895  0.53262867  0.66182568    -0.82900
Mg609      Mg  0.28601528  0.71641821  0.67481380     1.58000
C610        C  0.45643399  0.66896722  0.64012522     0.92500
O611        O  0.30049910  0.77432083  0.66319863    -0.81100
H612        H  0.39592406  0.72732434  0.61633466    -0.06500
C613        C  0.36344451  0.63196414  0.68014423     0.87400
O614        O  0.26769071  0.61792828  0.62578792    -0.75700
O615        O  0.34372540  0.73057531  0.67252699    -0.88400
O616        O  0.45309022  0.69587451  0.64655860    -0.81200
C617        C  0.45945650  0.79605049  0.66490456     0.92600
C618        C  0.32967443  0.80383485  0.65720453     0.92500
Mg619      Mg  0.36508728  0.61936286  0.63880031     1.58000
O620        O  0.35014596  0.56138008  0.65124793    -0.81100
O621        O  0.38070206  0.67339844  0.62259505    -0.75400
O622        O  0.42930939  0.79635818  0.66118759    -0.81200
O623        O  0.22391610  0.69992198  0.67769905    -0.82900
O624        O  0.22078945  0.53979271  0.65111368    -0.81300
C625        C  0.38824466  0.70631939  0.62699272     0.86900
O626        O  0.30686533  0.60520869  0.64031847    -0.88400
O627        O  0.37309556  0.64734523  0.66494554    -0.88500
O628        O  0.32938932  0.60778670  0.68356632    -0.75600
Mg629      Mg  0.37298196  0.75825337  0.64725291     1.58000
O630        O  0.46020543  0.76570319  0.66619462    -0.82900
H631        H  0.26521195  0.69587134  0.62234252    -0.06700
O632        O  0.26401499  0.62149222  0.66970361    -0.88200
H633        H  0.25467706  0.60806945  0.69642331    -0.06500
H634        H  0.30150732  0.60206727  0.61291343    -0.06700
C635        C  0.26239582  0.62942425  0.68594708     0.86900
C636        C  0.28615843  0.70429355  0.63307298     0.87500
C637        C  0.29227024  0.60769507  0.62588379     0.87500
H638        H  0.38417473  0.64045680  0.69098415    -0.06600
O639        O  0.38248815  0.71797481  0.68740969    -0.75700
Mg640      Mg  0.27693468  0.57791981  0.66551969     1.58000
H641        H  0.34907503  0.73471805  0.69990842    -0.06700
C642        C  0.19522337  0.66747747  0.67500948     0.92500
O643        O  0.18924960  0.57025612  0.64763439    -0.82900
C644        C  0.19009708  0.53989892  0.64865137     0.92600
O645        O  0.35898492  0.80363467  0.65162119    -0.82900
Mg646      Mg  0.41477888  0.70517266  0.66551977     1.58200
O647        O  0.19792726  0.64169112  0.66673793    -0.81200
O648        O  0.42787594  0.63633096  0.63749519    -0.82900
C649        C  0.97562450  0.64006465  0.68382088    -0.01400
C650        C  0.98023351  0.61302399  0.67439089    -0.09500
C651        C  0.01448662  0.61346328  0.67512448    -0.18300
C652        C  0.04571254  0.64206175  0.68480253     0.04100
C653        C  0.04074844  0.66943153  0.69432419     0.18300
C654        C  0.00555957  0.66740688  0.69427342    -0.19700
C655        C  0.07145088  0.69988909  0.70291372    -0.21000
C656        C  0.10753390  0.70483174  0.70141199    -0.19500
C657        C  0.11344323  0.67856433  0.69196773     0.19700
C658        C  0.08223958  0.64584216  0.68437195     0.01800
C659        C  0.08905897  0.61867760  0.67628042    -0.14300
C660        C  0.12562446  0.62527646  0.67426783    -0.12000
C661        C  0.15679248  0.65917246  0.68015974     0.01300
C662        C  0.15042396  0.68521642  0.68959499    -0.24200
H663        H  0.95754602  0.59203793  0.66604231     0.09300
H664        H  0.01625009  0.59234100  0.66711307     0.12900
H665        H  0.00236243  0.68902376  0.70120233     0.11600
H666        H  0.06781786  0.72091046  0.71015989     0.12800
H667        H  0.13100415  0.72953928  0.70751207     0.11800
H668        H  0.06673091  0.59210056  0.67127257     0.08900
H669        H  0.12940312  0.60401584  0.66738743     0.12200
H670        H  0.17420578  0.71108187  0.69462639     0.14100
C671        C  0.67760336  0.69640699  0.64217554    -0.01400
C672        C  0.65409571  0.67621125  0.62739257    -0.09500
C673        C  0.61916590  0.67379799  0.62495227    -0.18300
C674        C  0.60667306  0.69199115  0.63716415     0.04100
C675        C  0.63212417  0.71543028  0.65103695     0.18300
C676        C  0.66682385  0.71678850  0.65367782    -0.19700
C677        C  0.62235433  0.73663117  0.66245811    -0.21000
C678        C  0.58740054  0.73417019  0.66075761    -0.19500
C679        C  0.56068935  0.70904089  0.64823724     0.19700
C680        C  0.56966784  0.68724983  0.63635357     0.01800
C681        C  0.54056369  0.66018791  0.62498862    -0.14300
C682        C  0.50382224  0.65441086  0.62582998    -0.12000
C683        C  0.49540828  0.67629921  0.63748185     0.01300
C684        C  0.52437599  0.70426451  0.64823357    -0.24200
H685        H  0.66187641  0.66058448  0.61810661     0.09300
H686        H  0.60242821  0.65732134  0.61345804     0.12900
H687        H  0.68509047  0.73310858  0.66491761     0.11600
H688        H  0.64177853  0.75506376  0.67284655     0.12800
H689        H  0.58060871  0.75084405  0.66986713     0.11800
H690        H  0.54491511  0.64185067  0.61598803     0.08900
H691        H  0.48188560  0.63252284  0.61751801     0.12200
H692        H  0.51809798  0.72098016  0.65759398     0.14100
C693        C  0.75366247  0.73353352  0.73343630    -0.01400
C694        C  0.71809692  0.73023458  0.73117797    -0.09500
C695        C  0.70396709  0.74523346  0.74404997    -0.18300
C696        C  0.72489127  0.76410741  0.75986638     0.04100
C697        C  0.76016800  0.76597548  0.76262373     0.18300
C698        C  0.77439426  0.75117132  0.74936726    -0.19700
C699        C  0.78099507  0.78263653  0.77859797    -0.21000
C700        C  0.76731090  0.79701334  0.79199840    -0.19500
C701        C  0.73301845  0.79618895  0.78951646     0.19700
C702        C  0.71178152  0.78063630  0.77316751     0.01800
C703        C  0.67844576  0.78248882  0.77083179    -0.14300
C704        C  0.66584480  0.79743866  0.78454002    -0.12000
C705        C  0.68577258  0.81074666  0.80100988     0.01300
C706        C  0.71953967  0.81042750  0.80337076    -0.24200
H707        H  0.70115410  0.71655113  0.71914313     0.09300
H708        H  0.67639559  0.74131296  0.74127582     0.12900
H709        H  0.80175772  0.75364356  0.75141768     0.11600
H710        H  0.80783789  0.78409893  0.78086563     0.12800
H711        H  0.78381054  0.80909814  0.80435636     0.11800
H712        H  0.66147549  0.77263865  0.75856628     0.08900
H713        H  0.63963256  0.79741908  0.78255048     0.12200
H714        H  0.73503726  0.82088666  0.81613981     0.14100
C715        C  0.55802262  0.51302893  0.52619478    -0.01400
C716        C  0.55026268  0.51847131  0.54433189    -0.09500
C717        C  0.57722177  0.52823347  0.55808759    -0.18300
C718        C  0.61327783  0.53316944  0.55410409     0.04100
C719        C  0.62100057  0.52743913  0.53563932     0.18300
C720        C  0.59347074  0.51763875  0.52188249    -0.19700
C721        C  0.65625290  0.53191781  0.53102109    -0.21000
C722        C  0.68435951  0.54275428  0.54426132    -0.19500
C723        C  0.67800082  0.54954607  0.56245704     0.19700
C724        C  0.64216851  0.54442073  0.56767070     0.01800
C725        C  0.63713838  0.55181830  0.58615396    -0.14300
C726        C  0.66692074  0.56579531  0.59858150    -0.12000
C727        C  0.70252095  0.57215196  0.59326429     0.01300
C728        C  0.70765180  0.56281468  0.57533799    -0.24200
H729        H  0.52318477  0.51553964  0.54784171     0.09300
H730        H  0.56893323  0.53198805  0.57165309     0.12900
H731        H  0.59951174  0.51348399  0.50779456     0.11600
H732        H  0.66228639  0.52741380  0.51700139     0.12800
H733        H  0.71150912  0.54650491  0.54016148     0.11800
H734        H  0.61087986  0.54817008  0.59137955     0.08900
H735        H  0.66231156  0.57261123  0.61241818     0.12200
H736        H  0.73528918  0.56800801  0.57110944     0.14100
C737        C  0.89816639  0.60051712  0.59426530    -0.01400
C738        C  0.87388234  0.57635254  0.58063306    -0.09500
C739        C  0.88655351  0.56001821  0.56758674    -0.18300
C740        C  0.92423954  0.56737781  0.56769022     0.04100
C741        C  0.94891032  0.59243702  0.58131407     0.18300
C742        C  0.93576800  0.60850859  0.59436146    -0.19700
C743        C  0.98664469  0.60129175  0.58193144    -0.21000
C744        C  0.00070681  0.58624853  0.56914248    -0.19500
C745        C  0.97729427  0.56151287  0.55554043     0.19700
C746        C  0.93852441  0.55115660  0.55475002     0.01800
C747        C  0.91596029  0.52514133  0.54100869    -0.14300
C748        C  0.93155066  0.51100613  0.52833976    -0.12000
C749        C  0.96995474  0.52240286  0.52888055     0.01300
C750        C  0.99262356  0.54741801  0.54256808    -0.24200
H751        H  0.84465749  0.56942505  0.58021752     0.09300
H752        H  0.86616736  0.54172193  0.55760742     0.12900
H753        H  0.95495984  0.62705469  0.60479811     0.11600
H754        H  0.00556687  0.62029301  0.59231144     0.12800
H755        H  0.03018069  0.59406483  0.56989375     0.11800
H756        H  0.88626158  0.51535198  0.53963913     0.08900
H757        H  0.91373351  0.49177066  0.51774515     0.12200
H758        H  0.02240042  0.55622067  0.54295107     0.14100
C759        C  0.49521204  0.83210398  0.66593130    -0.01400
C760        C  0.49832956  0.86372545  0.65699314    -0.09500
C761        C  0.53327425  0.89624283  0.65495385    -0.18300
C762        C  0.56633223  0.89831880  0.66205802     0.04100
C763        C  0.56267612  0.86713953  0.67222919     0.18300
C764        C  0.52742706  0.83414867  0.67375510    -0.19700
C765        C  0.59422752  0.86913288  0.68076854    -0.21000
C766        C  0.62921029  0.90195535  0.67983980    -0.19500
C767        C  0.63380449  0.93279156  0.66956430     0.19700
C768        C  0.60272155  0.93064589  0.65982834     0.01800
C769        C  0.60940023  0.96086490  0.64817508    -0.14300
C770        C  0.64477983  0.99310813  0.64738557    -0.12000
C771        C  0.67444268  0.99653771  0.65832454     0.01300
C772        C  0.66910297  0.96603201  0.66912924    -0.24200
H773        H  0.47384906  0.86288884  0.65084860     0.09300
H774        H  0.53343418  0.91942159  0.64793129     0.12900
H775        H  0.52513411  0.80988914  0.68086685     0.11600
H776        H  0.59163752  0.84548681  0.68858498     0.12800
H777        H  0.65287744  0.90311832  0.68706821     0.11800
H778        H  0.58789119  0.96038500  0.63946906     0.08900
H779        H  0.64837232  0.01627895  0.63881594     0.12200
H780        H  0.69223484  0.96838480  0.67735999     0.14100
C781        C  0.97704843  0.34990321  0.67639625    -0.01400
C782        C  0.01017213  0.35346298  0.68382831    -0.09500
C783        C  0.04543175  0.38295858  0.67849950    -0.18300
C784        C  0.04866239  0.41032879  0.66568744     0.04100
C785        C  0.01494935  0.40824672  0.65925156     0.18300
C786        C  0.97959921  0.37775004  0.66431189    -0.19700
C787        C  0.01682230  0.43648347  0.64773641    -0.21000
C788        C  0.05156179  0.46722706  0.64283265    -0.19500
C789        C  0.08524737  0.46948562  0.64856566     0.19700
C790        C  0.08417335  0.44017633  0.65940334     0.01800
C791        C  0.11869790  0.44188554  0.66342466    -0.14300
C792        C  0.15298789  0.47305996  0.65836732    -0.12000
C793        C  0.15410931  0.50373224  0.64933773     0.01300
C794        C  0.12006323  0.50124127  0.64392942    -0.24200
H795        H  0.00895675  0.33229899  0.69315177     0.09300
H796        H  0.06965407  0.38373787  0.68474301     0.12900
H797        H  0.95404189  0.37534953  0.65861159     0.11600
H798        H  0.99124559  0.43519599  0.64282173     0.12800
H799        H  0.05208955  0.48921716  0.63438168     0.11800
H800        H  0.12010766  0.41963185  0.67055810     0.08900
H801        H  0.17880428  0.47400106  0.66256515     0.12200
H802        H  0.12062460  0.52457154  0.63667475     0.14100
C803        C  0.76052364  0.04306067  0.74317344    -0.01400
C804        C  0.72183018  0.02532529  0.74722919    -0.09500
C805        C  0.70444640  0.99348009  0.75847863    -0.18300
C806        C  0.72515967  0.97769316  0.76600757     0.04100
C807        C  0.76477587  0.99670757  0.76265218     0.18300
C808        C  0.78208330  0.02913759  0.75136286    -0.19700
C809        C  0.78668299  0.98276655  0.77030635    -0.21000
C810        C  0.77022760  0.95066871  0.78136180    -0.19500
C811        C  0.73128623  0.93116431  0.78478972     0.19700
C812        C  0.70804275  0.94394423  0.77684143     0.01800
C813        C  0.66868218  0.92233873  0.78010172    -0.14300
C814        C  0.65347323  0.89094559  0.79171083    -0.12000
C815        C  0.67670959  0.87969744  0.80039518     0.01300
C816        C  0.71554828  0.89943788  0.79647501    -0.24200
H817        H  0.70453779  0.03561661  0.74122452     0.09300
H818        H  0.67462939  0.98166749  0.76085976     0.12900
H819        H  0.81197487  0.04241236  0.74823732     0.11600
H820        H  0.81685253  0.99695454  0.76783094     0.12800
H821        H  0.78812840  0.94099994  0.78727216     0.11800
H822        H  0.64889239  0.92916415  0.77403412     0.08900
H823        H  0.62333764  0.87585351  0.79432205     0.12200
H824        H  0.73383783  0.89115844  0.80321425     0.14100
C825        C  0.54659104  0.03518900  0.53231482    -0.01400
C826        C  0.58108066  0.06613171  0.52681591    -0.09500
C827        C  0.60938337  0.08731511  0.53966685    -0.18300
C828        C  0.60447267  0.07782036  0.55861842     0.04100
C829        C  0.56940038  0.04635274  0.56416083     0.18300
C830        C  0.54080316  0.02580199  0.55110836    -0.19700
C831        C  0.56349811  0.03488477  0.58263025    -0.21000
C832        C  0.59200103  0.05312071  0.59560771    -0.19500
C833        C  0.62696147  0.08395979  0.59060532     0.19700
C834        C  0.63340930  0.09752143  0.57216539     0.01800
C835        C  0.66872899  0.12985117  0.56813220    -0.14300
C836        C  0.69691913  0.14681383  0.58160822    -0.12000
C837        C  0.69120360  0.13198681  0.59948844     0.01300
C838        C  0.65579057  0.10082187  0.60389713    -0.24200
H839        H  0.58628239  0.07381552  0.51238263     0.09300
H840        H  0.63520856  0.11038515  0.53428248     0.12900
H841        H  0.51449541  0.00152270  0.55547420     0.11600
H842        H  0.53690551  0.01101049  0.58700262     0.12800
H843        H  0.58672297  0.04282711  0.60967449     0.11800
H844        H  0.67550297  0.14249735  0.55462676     0.08900
H845        H  0.72392794  0.17071922  0.57778258     0.12200
H846        H  0.65083198  0.08920580  0.61771499     0.14100
C847        C  0.88718729  0.30331358  0.59696040    -0.01400
C848        C  0.86379601  0.30096411  0.58236047    -0.09500
C849        C  0.87718270  0.32827455  0.56841255    -0.18300
C850        C  0.91460240  0.35915100  0.56866276     0.04100
C851        C  0.93820338  0.36129606  0.58348130     0.18300
C852        C  0.92450970  0.33356051  0.59726405    -0.19700
C853        C  0.97530833  0.39136561  0.58463993    -0.21000
C854        C  0.98958401  0.41963082  0.57141889    -0.19500
C855        C  0.96725060  0.41839452  0.55660803     0.19700
C856        C  0.92948925  0.38805443  0.55487719     0.01800
C857        C  0.90860408  0.38790914  0.53932023    -0.14300
C858        C  0.92480110  0.41635327  0.52599691    -0.12000
C859        C  0.96184988  0.44598889  0.52794308     0.01300
C860        C  0.98280671  0.44707513  0.54330609    -0.24200
H861        H  0.83480513  0.27817305  0.58181512     0.09300
H862        H  0.85741158  0.32469699  0.55775455     0.12900
H863        H  0.94300891  0.33604635  0.60849947     0.11600
H864        H  0.99339648  0.39316046  0.59593222     0.12800
H865        H  0.01841118  0.44255879  0.57274336     0.11800
H866        H  0.88000769  0.36585219  0.53687773     0.08900
H867        H  0.90855476  0.41496787  0.51397274     0.12200
H868        H  0.01178942  0.46979072  0.54455857     0.14100
C869        C  0.09058916  0.81409769  0.80778215    -0.01400
C870        C  0.05501879  0.80862420  0.81268059    -0.09500
C871        C  0.02673985  0.79910380  0.79938461    -0.18300
C872        C  0.03293724  0.79409318  0.78063927     0.04100
C873        C  0.06878893  0.79868495  0.77588576     0.18300
C874        C  0.09712934  0.80895508  0.78932286    -0.19700
C875        C  0.07612235  0.79264215  0.75774463    -0.21000
C876        C  0.04854837  0.78154730  0.74423941    -0.19500
C877        C  0.01309268  0.77704929  0.74835016     0.19700
C878        C  0.00487377  0.78401668  0.76648684     0.01800
C879        C  0.96895504  0.78042172  0.76953029    -0.14300
C880        C  0.94201891  0.76898903  0.75534933    -0.12000
C881        C  0.94972009  0.76030900  0.73775508     0.01300
C882        C  0.98563243  0.76499170  0.73439745    -0.24200
H883        H  0.04924806  0.81223290  0.82687519     0.09300
H884        H  0.00014820  0.79541293  0.80418543     0.12900
H885        H  0.12436242  0.81259959  0.78545913     0.11600
H886        H  0.10328125  0.79598390  0.75401169     0.12800
H887        H  0.05505506  0.77645020  0.73042306     0.11800
H888        H  0.96085588  0.78603374  0.78277625     0.08900
H889        H  0.91449856  0.76541724  0.75838617     0.12200
H890        H  0.99209327  0.75860013  0.72083312     0.14100
C891        C  0.95974245  0.21317232  0.74018293    -0.01400
C892        C  0.95407778  0.19573799  0.75742172    -0.09500
C893        C  0.98264677  0.21001364  0.77074793    -0.18300
C894        C  0.01830234  0.24221206  0.76719803     0.04100
C895        C  0.02462708  0.25855100  0.74933458     0.18300
C896        C  0.99540594  0.24432757  0.73619031    -0.19700
C897        C  0.05989418  0.28943610  0.74478956    -0.21000
C898        C  0.08881710  0.30504824  0.75771622    -0.19500
C899        C  0.08305122  0.29076103  0.77568590     0.19700
C900        C  0.04769582  0.25911743  0.78072443     0.01800
C901        C  0.04299853  0.24660965  0.79923261    -0.14300
C902        C  0.07179985  0.26514859  0.81218309    -0.12000
C903        C  0.10651383  0.29621342  0.80714612     0.01300
C904        C  0.11213165  0.30857786  0.78878734    -0.24200
H905        H  0.92690231  0.17169110  0.76089397     0.09300
H906        H  0.97588675  0.19535015  0.78374773     0.12900
H907        H  0.00033322  0.25786326  0.72283261     0.11600
H908        H  0.06508544  0.30181201  0.73114477     0.12800
H909        H  0.11565375  0.32906924  0.75373948     0.11800
H910        H  0.01704288  0.22314614  0.80424019     0.08900
H911        H  0.06690993  0.25521909  0.82630368     0.12200
H912        H  0.13881882  0.33289127  0.78485973     0.14100
C913        C  0.29424003  0.31221957  0.65334271    -0.01400
C914        C  0.27528467  0.32003148  0.66717159    -0.09500
C915        C  0.27861697  0.35542341  0.66840664    -0.18300
C916        C  0.30173760  0.38455176  0.65595420     0.04100
C917        C  0.32030697  0.37621781  0.64172672     0.18300
C918        C  0.31578268  0.34016783  0.64032492    -0.19700
C919        C  0.34446102  0.40427441  0.62939083    -0.21000
C920        C  0.35100428  0.44072752  0.63100038    -0.19500
C921        C  0.33294364  0.44983048  0.64474580     0.19700
C922        C  0.30765852  0.42176572  0.65729002     0.01800
C923        C  0.28913178  0.43212166  0.67049827    -0.14300
C924        C  0.29480405  0.46845654  0.67092165    -0.12000
C925        C  0.31955506  0.49589482  0.65848698     0.01300
C926        C  0.33920206  0.48665246  0.64568664    -0.24200
H927        H  0.25876795  0.29905809  0.67749808     0.09300
H928        H  0.26379186  0.35938977  0.67966420     0.12900
H929        H  0.33112369  0.33467246  0.62973510     0.11600
H930        H  0.35884980  0.39811873  0.61857956     0.12800
H931        H  0.37008717  0.46188038  0.62131887     0.11800
H932        H  0.26926032  0.41260245  0.68036536     0.08900
H933        H  0.27910426  0.47495283  0.68085194     0.12200
H934        H  0.35783231  0.50759712  0.63579028     0.14100
C935        C  0.33123051  0.84029724  0.65838975    -0.01400
C936        C  0.35547887  0.87006731  0.64686904    -0.09500
C937        C  0.36219058  0.90636297  0.65002962    -0.18300
C938        C  0.34539477  0.91414013  0.66518625     0.04100
C939        C  0.32032570  0.88357792  0.67664089     0.18300
C940        C  0.31304705  0.84708562  0.67297541    -0.19700
C941        C  0.30337415  0.88968773  0.69198363    -0.21000
C942        C  0.31045402  0.92557034  0.69615612    -0.19500
C943        C  0.33445160  0.95614706  0.68501057     0.19700
C944        C  0.35252757  0.95101748  0.66942918     0.01800
C945        C  0.37643240  0.98295087  0.65864583    -0.14300
C946        C  0.38021379  0.01787550  0.66251149    -0.12000
C947        C  0.36079430  0.02228096  0.67735156     0.01300
C948        C  0.33919445  0.99160852  0.68896682    -0.24200
H949        H  0.37003303  0.86539711  0.63559535     0.09300
H950        H  0.38133806  0.92777682  0.64061717     0.12900
H951        H  0.29482230  0.82424801  0.68216903     0.11600
H952        H  0.28448478  0.86652554  0.70083398     0.12800
H953        H  0.29663087  0.92934766  0.70804900     0.11800
H954        H  0.39161656  0.98170362  0.64677900     0.08900
H955        H  0.39716503  0.04117394  0.65331592     0.12200
H956        H  0.32390893  0.99466012  0.70043451     0.14100
C957        C  0.22997556  0.03077753  0.73670001    -0.01400
C958        C  0.20090121  0.02657503  0.74852489    -0.09500
C959        C  0.18504804  0.99736349  0.76161171    -0.18300
C960        C  0.19813457  0.97148803  0.76344783     0.04100
C961        C  0.22710439  0.97556611  0.75118536     0.18300
C962        C  0.24221421  0.00448399  0.73797903    -0.19700
C963        C  0.24177877  0.95140014  0.75243543    -0.21000
C964        C  0.22934261  0.92399897  0.76604671    -0.19500
C965        C  0.20146230  0.91959156  0.77860335     0.19700
C966        C  0.18458040  0.94248088  0.77726334     0.01800
C967        C  0.15549360  0.93557943  0.79002421    -0.14300
C968        C  0.14496653  0.90828596  0.80392992    -0.12000
C969        C  0.16319633  0.88732099  0.80558786     0.01300
C970        C  0.19094219  0.89275756  0.79272195    -0.24200
H971        H  0.19077732  0.04633086  0.74790226     0.09300
H972        H  0.16324232  0.99624512  0.77040100     0.12900
H973        H  0.26458457  0.00708936  0.72897724     0.11600
H974        H  0.26373641  0.95427817  0.74306229     0.12800
H975        H  0.24197529  0.90635945  0.76688241     0.11800
H976        H  0.14065806  0.95104039  0.78966275     0.08900
H977        H  0.12312055  0.90410530  0.81368633     0.12200
H978        H  0.20468910  0.87615335  0.79387188     0.14100
C979        C  0.25317009  0.22488411  0.73884069    -0.01400
C980        C  0.22124080  0.20040895  0.74926614    -0.09500
C981        C  0.20637520  0.21437028  0.76250032    -0.18300
C982        C  0.22330445  0.25349149  0.76585939     0.04100
C983        C  0.25638204  0.27795282  0.75564029     0.18300
C984        C  0.27066550  0.26360125  0.74229603    -0.19700
C985        C  0.27502871  0.31677822  0.75865425    -0.21000
C986        C  0.26163449  0.33204632  0.77164533    -0.19500
C987        C  0.22891854  0.30896444  0.78179588     0.19700
C988        C  0.20893646  0.26936367  0.77897119     0.01800
C989        C  0.17554640  0.24762915  0.78939059    -0.14300
C990        C  0.16319678  0.26446975  0.80231858    -0.12000
C991        C  0.18356083  0.30338065  0.80527660     0.01300
C992        C  0.21628197  0.32539728  0.79487958    -0.24200
H993        H  0.20702101  0.17039100  0.74682399     0.09300
H994        H  0.18157628  0.19390818  0.76984009     0.12900
H995        H  0.29552634  0.28284983  0.73443038     0.11600
H996        H  0.30030783  0.33552741  0.75093556     0.12800
H997        H  0.27693840  0.36222007  0.77371488     0.11800
H998        H  0.15850721  0.21756183  0.78791693     0.08900
H999        H  0.13806574  0.24687047  0.81037318     0.12200
H1000       H  0.23211362  0.35553982  0.79710884     0.14100
C1001       C  0.46656806  0.02023102  0.53250770    -0.01400
C1002       C  0.43799241  0.99686908  0.54476315    -0.09500
C1003       C  0.42305276  0.01177419  0.55723110    -0.18300
C1004       C  0.43598701  0.05083543  0.55764627     0.04100
C1005       C  0.46487199  0.07442298  0.54501665     0.18300
C1006       C  0.48003652  0.05900024  0.53268122    -0.19700
C1007       C  0.47822014  0.11316240  0.54472000    -0.21000
C1008       C  0.46391452  0.12915395  0.55691073    -0.19500
C1009       C  0.43591369  0.10684137  0.56975152     0.19700
C1010       C  0.42138844  0.06728545  0.57016344     0.01800
C1011       C  0.39308240  0.04585977  0.58323667    -0.14300
C1012       C  0.38058371  0.06291664  0.59569754    -0.12000
C1013       C  0.39551868  0.10200388  0.59573891     0.01300
C1014       C  0.42280454  0.12383357  0.58243912    -0.24200
H1015       H  0.42710832  0.96679942  0.54463709     0.09300
H1016       H  0.40123175  0.99182569  0.56623403     0.12900
H1017       H  0.50181249  0.07699209  0.52293923     0.11600
H1018       H  0.50003646  0.13127682  0.53503786     0.12800
H1019       H  0.47509467  0.15925917  0.55640080     0.11800
H1020       H  0.38023720  0.01580529  0.58443775     0.08900
H1021       H  0.35927382  0.04508649  0.60564308     0.12200
H1022       H  0.43468456  0.15406829  0.58232203     0.14100
C1023       C  0.48288256  0.44338099  0.52846147    -0.01400
C1024       C  0.50063007  0.42188021  0.52937817    -0.09500
C1025       C  0.49024112  0.39395737  0.54285718    -0.18300
C1026       C  0.46184678  0.38697175  0.55601514     0.04100
C1027       C  0.44534091  0.41028741  0.55547382     0.18300
C1028       C  0.45553705  0.43767782  0.54164213    -0.19700
C1029       C  0.41843695  0.40593193  0.56863528    -0.21000
C1030       C  0.40680320  0.37832934  0.58211699    -0.19500
C1031       C  0.42117146  0.35382894  0.58256000     0.19700
C1032       C  0.44889140  0.35762358  0.56956635     0.01800
C1033       C  0.46145707  0.33120371  0.57045645    -0.14300
C1034       C  0.44650908  0.30193185  0.58348117    -0.12000
C1035       C  0.41892467  0.29825118  0.59615427     0.01300
C1036       C  0.40703623  0.32488897  0.59571152    -0.24200
H1037       H  0.52217762  0.42628805  0.51938243     0.09300
H1038       H  0.50488513  0.37831340  0.54265111     0.12900
H1039       H  0.44225302  0.45477648  0.54111244     0.11600
H1040       H  0.40610381  0.42387932  0.56843984     0.12800
H1041       H  0.38570190  0.37555523  0.59202750     0.11800
H1042       H  0.48209227  0.33188763  0.56097197     0.08900
H1043       H  0.45614092  0.28175823  0.58340570     0.12200
H1044       H  0.38570630  0.32258467  0.60536109     0.14100
C1045       C  0.95985835  0.31737574  0.98470579    -0.01400
C1046       C  0.93814653  0.28904433  0.99750546    -0.09500
C1047       C  0.93766201  0.25479387  0.99740323    -0.18300
C1048       C  0.95980431  0.24795640  0.98469113     0.04100
C1049       C  0.98098100  0.27630959  0.97139070     0.18300
C1050       C  0.98015359  0.31017293  0.97124735    -0.19700
C1051       C  0.00441785  0.27153442  0.95892342    -0.21000
C1052       C  0.00884174  0.24015393  0.95998151    -0.19500
C1053       C  0.98918112  0.21218602  0.97322293     0.19700
C1054       C  0.96319117  0.21493276  0.98527490     0.01800
C1055       C  0.94241975  0.18488079  0.99766632    -0.14300
C1056       C  0.94871051  0.15455229  0.99872994    -0.12000
C1057       C  0.97618970  0.15319403  0.98772609     0.01300
C1058       C  0.99592575  0.18185735  0.97475807    -0.24200
H1059       H  0.92234606  0.29384539  0.00809302     0.09300
H1060       H  0.92102546  0.23495418  0.00800903     0.12900
H1061       H  0.99754951  0.33203449  0.96143653     0.11600
H1062       H  0.02053703  0.29288884  0.94869371     0.12800
H1063       H  0.02820606  0.23801390  0.95052719     0.11800
H1064       H  0.92122880  0.18405503  0.00679848     0.08900
H1065       H  0.93284435  0.13262581  0.00876505     0.12200
H1066       H  0.01675242  0.18069669  0.96595753     0.14100
C1067       C  0.02396411  0.84461488  0.01705187    -0.01400
C1068       C  0.00259370  0.81737878  0.03030306    -0.09500
C1069       C  0.00822637  0.78707957  0.03348431    -0.18300
C1070       C  0.03481419  0.78242577  0.02302812     0.04100
C1071       C  0.05656813  0.81026690  0.00962038     0.18300
C1072       C  0.05170943  0.84147984  0.00712465    -0.19700
C1073       C  0.08162751  0.80579639  0.99816857    -0.21000
C1074       C  0.08373257  0.77307378  0.99893918    -0.19500
C1075       C  0.06187438  0.74467661  0.01165089     0.19700
C1076       C  0.03876651  0.74994186  0.02456137     0.01800
C1077       C  0.01953067  0.72175684  0.03801903    -0.14300
C1078       C  0.01983317  0.68801003  0.03739640    -0.12000
C1079       C  0.03918781  0.68114926  0.02336725     0.01300
C1080       C  0.06156088  0.71030822  0.01101819    -0.24200
H1081       H  0.98105555  0.81929385  0.03812589     0.09300
H1082       H  0.99008861  0.76687147  0.04362721     0.12900
H1083       H  0.06803481  0.86224286  0.99665325     0.11600
H1084       H  0.09843103  0.82697321  0.98796485     0.12800
H1085       H  0.10199834  0.76962395  0.98927849     0.11800
H1086       H  0.00334157  0.72463473  0.04897311     0.08900
H1087       H  0.00288654  0.66631038  0.04733897     0.12200
H1088       H  0.07739169  0.70564979  0.00036899     0.14100
C1089       C  0.07338902  0.64010347  0.93449073    -0.01400
C1090       C  0.07900106  0.67580080  0.93892201    -0.09500
C1091       C  0.09344648  0.70501176  0.92604721    -0.18300
C1092       C  0.10248376  0.69963217  0.90793158     0.04100
C1093       C  0.09701178  0.66354467  0.90337734     0.18300
C1094       C  0.08309390  0.63438697  0.91668258    -0.19700
C1095       C  0.10480134  0.65662749  0.88545949    -0.21000
C1096       C  0.11655079  0.68422697  0.87183343    -0.19500
C1097       C  0.12147874  0.71976749  0.87580070     0.19700
C1098       C  0.11563414  0.72839065  0.89405309     0.01800
C1099       C  0.12255119  0.76523649  0.89750401    -0.14300
C1100       C  0.13287406  0.79161700  0.88328337    -0.12000
C1101       C  0.13670638  0.78238365  0.86517308     0.01300
C1102       C  0.13150741  0.74654837  0.86155538    -0.24200
H1103       H  0.07237930  0.68145069  0.95259323     0.09300
H1104       H  0.09654248  0.73130553  0.93065031     0.12900
H1105       H  0.07902549  0.60704463  0.91304094     0.11600
H1106       H  0.10095705  0.62936671  0.88183709     0.12800
H1107       H  0.12142904  0.67756213  0.85801952     0.11800
H1108       H  0.11993361  0.77450055  0.91102086     0.08900
H1109       H  0.13700623  0.81920496  0.88637150     0.12200
H1110       H  0.13492675  0.73944542  0.84757209     0.14100
C1111       C  0.08723879  0.46043506  0.93197361    -0.01400
C1112       C  0.11507317  0.48342069  0.91920182    -0.09500
C1113       C  0.12854087  0.46777966  0.90608273    -0.18300
C1114       C  0.11421484  0.42839789  0.90522418     0.04100
C1115       C  0.08641085  0.40544893  0.91839349     0.18300
C1116       C  0.07372678  0.42150041  0.93157772    -0.19700
C1117       C  0.07063210  0.36635122  0.91816326    -0.21000
C1118       C  0.08126776  0.34921380  0.90484719    -0.19500
C1119       C  0.10830468  0.37075869  0.89151983     0.19700
C1120       C  0.12573648  0.41072929  0.89166348     0.01800
C1121       C  0.15365706  0.43104140  0.87813862    -0.14300
C1122       C  0.16323930  0.41241415  0.86491532    -0.12000
C1123       C  0.14513937  0.37310189  0.86458238     0.01300
C1124       C  0.11779600  0.35243792  0.87794990    -0.24200
H1125       H  0.12600320  0.51347631  0.91912030     0.09300
H1126       H  0.14960638  0.48711246  0.89655974     0.12900
H1127       H  0.05226139  0.40307670  0.94134536     0.11600
H1128       H  0.04937570  0.34880009  0.92819812     0.12800
H1129       H  0.06808315  0.31883494  0.90492146     0.11800
H1130       H  0.16856281  0.46130532  0.87744004     0.08900
H1131       H  0.18457127  0.42878641  0.85467918     0.12200
H1132       H  0.10401432  0.32199716  0.87779084     0.14100
C1133       C  0.32632542  0.35168181  0.01781430    -0.01400
C1134       C  0.29486096  0.34950593  0.00913981    -0.09500
C1135       C  0.25962090  0.31663741  0.01021417    -0.18300
C1136       C  0.25515479  0.28435317  0.01952220     0.04100
C1137       C  0.28723001  0.28706057  0.02850090     0.18300
C1138       C  0.32202845  0.32070508  0.02790598    -0.19700
C1139       C  0.28489301  0.25573150  0.03736398    -0.21000
C1140       C  0.25166393  0.22123624  0.03695953    -0.19500
C1141       C  0.21980485  0.21737175  0.02792456     0.19700
C1142       C  0.22065273  0.24904573  0.01952867     0.01800
C1143       C  0.18724971  0.24361893  0.01103895    -0.14300
C1144       C  0.15528055  0.20785585  0.00990433    -0.12000
C1145       C  0.15545927  0.17639217  0.01721086     0.01300
C1146       C  0.18747993  0.18163343  0.02670264    -0.24200
H1147       H  0.29767870  0.37313521  0.00123602     0.09300
H1148       H  0.23681029  0.31694407  0.00303011     0.12900
H1149       H  0.34648601  0.32200559  0.03439002     0.11600
H1150       H  0.30927722  0.25765566  0.04421455     0.12800
H1151       H  0.25108538  0.19724711  0.04349554     0.11800
H1152       H  0.18513784  0.26630047  0.00484869     0.08900
H1153       H  0.13080091  0.20470096  0.00263836     0.12200
H1154       H  0.18777687  0.15758999  0.03265029     0.14100
C1155       C  0.84990592  0.81997378  0.98317733    -0.01400
C1156       C  0.82263978  0.81302477  0.96981418    -0.09500
C1157       C  0.79292224  0.77653262  0.96672705    -0.18300
C1158       C  0.78899552  0.74591610  0.97739475     0.04100
C1159       C  0.81733404  0.75312324  0.99062273     0.18300
C1160       C  0.84783084  0.78965645  0.99302722    -0.19700
C1161       C  0.81401769  0.72426662  0.00211436    -0.21000
C1162       C  0.78177921  0.68891661  0.00166023    -0.19500
C1163       C  0.75269063  0.68127954  0.98928650     0.19700
C1164       C  0.75679486  0.70902350  0.97629825     0.01800
C1165       C  0.72768464  0.69903424  0.96331521    -0.14300
C1166       C  0.69433973  0.66443094  0.96441173    -0.12000
C1167       C  0.68882992  0.63873891  0.97846972     0.01300
C1168       C  0.71874687  0.64669771  0.99039463    -0.24200
H1169       H  0.82390996  0.83601225  0.96193499     0.09300
H1170       H  0.77255630  0.77352046  0.95651840     0.12900
H1171       H  0.86874574  0.79482434  0.00348244     0.11600
H1172       H  0.83568615  0.72956714  0.01214038     0.12800
H1173       H  0.77918176  0.66769390  0.01135994     0.11800
H1174       H  0.72945499  0.71768740  0.95242921     0.08900
H1175       H  0.67186580  0.65880361  0.95484250     0.12200
H1176       H  0.71499922  0.62666380  0.00108296     0.14100
C1177       C  0.54621876  0.62951578  0.92970603    -0.01400
C1178       C  0.58536270  0.65473005  0.92889432    -0.09500
C1179       C  0.60097775  0.68442406  0.91634045    -0.18300
C1180       C  0.57799479  0.69029959  0.90393253     0.04100
C1181       C  0.53821635  0.66569145  0.90515414     0.18300
C1182       C  0.52272621  0.63566624  0.91794355    -0.19700
C1183       C  0.51420293  0.67079963  0.89334546    -0.21000
C1184       C  0.52879117  0.69920029  0.88010953    -0.19500
C1185       C  0.56780971  0.72310489  0.87820507     0.19700
C1186       C  0.59307294  0.71923817  0.89016993     0.01800
C1187       C  0.63230747  0.74392495  0.88749809    -0.14300
C1188       C  0.64573675  0.77047366  0.87326319    -0.12000
C1189       C  0.62068861  0.77381154  0.86145645     0.01300
C1190       C  0.58176177  0.75039712  0.86414086    -0.24200
H1191       H  0.60449379  0.65124383  0.93785348     0.09300
H1192       H  0.63124078  0.70204720  0.91660866     0.12900
H1193       H  0.49247492  0.61664146  0.91843798     0.11600
H1194       H  0.48388801  0.65241942  0.89421766     0.12800
H1195       H  0.50937759  0.70209406  0.87107480     0.11800
H1196       H  0.65341372  0.74306308  0.89596171     0.08900
H1197       H  0.67590544  0.78857016  0.87143904     0.12200
H1198       H  0.56232619  0.75290313  0.85493527     0.14100
C1199       C  0.36446535  0.43689008  0.93114378    -0.01400
C1200       C  0.32954980  0.40442067  0.93470425    -0.09500
C1201       C  0.29960566  0.39194891  0.92234484    -0.18300
C1202       C  0.30348775  0.41133388  0.90568151     0.04100
C1203       C  0.33896777  0.44403053  0.90196149     0.18300
C1204       C  0.36879827  0.45674221  0.91474165    -0.19700
C1205       C  0.34460950  0.46357941  0.88537997    -0.21000
C1206       C  0.31624337  0.45079295  0.87217734    -0.19500
C1207       C  0.28114519  0.41857267  0.87534914     0.19700
C1208       C  0.27382273  0.39894627  0.89238054     0.01800
C1209       C  0.23726873  0.36755531  0.89520544    -0.14300
C1210       C  0.20995202  0.35517662  0.88136584    -0.12000
C1211       C  0.21806977  0.37343822  0.86428700     0.01300
C1212       C  0.25352212  0.40542994  0.86144214    -0.24200
H1213       H  0.32502335  0.38856530  0.94730931     0.09300
H1214       H  0.27393539  0.36670566  0.92613740     0.12900
H1215       H  0.39554929  0.48186485  0.91179578     0.11600
H1216       H  0.37146054  0.48855616  0.88243028     0.12800
H1217       H  0.32189461  0.46614215  0.85931902     0.11800
H1218       H  0.22897440  0.35180242  0.90790400     0.08900
H1219       H  0.18263105  0.33043253  0.88379701     0.12200
H1220       H  0.25972136  0.41975597  0.84825105     0.14100
C1221       C  0.82274276  0.97882740  0.00544426    -0.01400
C1222       C  0.79738560  0.95870731  0.99132806    -0.09500
C1223       C  0.76655512  0.96345603  0.98787502    -0.18300
C1224       C  0.76022447  0.98849905  0.99858637     0.04100
C1225       C  0.78404389  0.00590275  0.01400273     0.18300
C1226       C  0.81505661  0.00111474  0.01720344    -0.19700
C1227       C  0.77765497  0.02912173  0.02572788    -0.21000
C1228       C  0.74832283  0.03594944  0.02231364    -0.19500
C1229       C  0.72535963  0.02048020  0.00683528     0.19700
C1230       C  0.73128771  0.99701787  0.99456245     0.01800
C1231       C  0.70828795  0.98354395  0.97870269    -0.14300
C1232       C  0.67880013  0.99075455  0.97592457    -0.12000
C1233       C  0.67146694  0.01166648  0.98878559     0.01300
C1234       C  0.69581753  0.02762519  0.00382752    -0.24200
H1235       H  0.80283192  0.94125439  0.98209828     0.09300
H1236       H  0.74867830  0.94777456  0.97651876     0.12900
H1237       H  0.83443895  0.01634628  0.02830698     0.11600
H1238       H  0.79552343  0.04216455  0.03759319     0.12800
H1239       H  0.74381193  0.05377361  0.03173975     0.11800
H1240       H  0.71203489  0.96693373  0.96833785     0.08900
H1241       H  0.66048736  0.97820619  0.96416110     0.12200
H1242       H  0.69070255  0.04426479  0.01377315     0.14100
C1243       C  0.17712757  0.01599396  0.99543659    -0.01400
C1244       C  0.18297906  0.99366351  0.98285529    -0.09500
C1245       C  0.21327745  0.98765983  0.98485527    -0.18300
C1246       C  0.23829432  0.00327874  0.99986364     0.04100
C1247       C  0.23402561  0.02845733  0.01170386     0.18300
C1248       C  0.20371832  0.03485246  0.00929396    -0.19700
C1249       C  0.25906159  0.04579807  0.02631934    -0.21000
C1250       C  0.28813094  0.03838196  0.02954056    -0.19500
C1251       C  0.29231847  0.01286060  0.01845498     0.19700
C1252       C  0.26710527  0.99452045  0.00361893     0.01800
C1253       C  0.27147414  0.96777251  0.99333618    -0.14300
C1254       C  0.30126040  0.96155216  0.99678475    -0.12000
C1255       C  0.32744635  0.98142976  0.01065708     0.01300
C1256       C  0.32209593  0.00612762  0.02186101    -0.24200
H1257       H  0.16288831  0.97924006  0.97190840     0.09300
H1258       H  0.21570028  0.96989856  0.97469531     0.12900
H1259       H  0.19917026  0.05210198  0.01909657     0.11600
H1260       H  0.25605025  0.06510647  0.03536026     0.12800
H1261       H  0.30726180  0.05244744  0.04087950     0.11800
H1262       H  0.25262878  0.95142729  0.98240812     0.08900
H1263       H  0.30453388  0.94198581  0.98806601     0.12200
H1264       H  0.34221162  0.02161228  0.03266033     0.14100
C1265       C  0.36143366  0.92905306  0.92826890    -0.01400
C1266       C  0.35307095  0.89691822  0.91792508    -0.09500
C1267       C  0.32329061  0.88175688  0.90513378    -0.18300
C1268       C  0.30087524  0.89854228  0.90198636     0.04100
C1269       C  0.31023345  0.93179450  0.91203722     0.18300
C1270       C  0.33972360  0.94628080  0.92509433    -0.19700
C1271       C  0.29002948  0.95047162  0.90904695    -0.21000
C1272       C  0.26092747  0.93712784  0.89621981    -0.19500
C1273       C  0.25048010  0.90417464  0.88627345     0.19700
C1274       C  0.26981267  0.88395027  0.88919378     0.01800
C1275       C  0.25692887  0.85001333  0.87924523    -0.14300
C1276       C  0.22681321  0.83729228  0.86672816    -0.12000
C1277       C  0.20856738  0.85791693  0.86352973     0.01300
C1278       C  0.22071739  0.89138880  0.87342255    -0.24200
H1279       H  0.36900872  0.88275119  0.92007139     0.09300
H1280       H  0.31849585  0.85689848  0.89784984     0.12900
H1281       H  0.34574582  0.97118214  0.93287174     0.11600
H1282       H  0.29700745  0.97587389  0.91659789     0.12800
H1283       H  0.24625460  0.95261706  0.89416352     0.11800
H1284       H  0.26952681  0.83264701  0.88092508     0.08900
H1285       H  0.21813900  0.81145080  0.85924499     0.12200
H1286       H  0.20666527  0.90743870  0.87117585     0.14100
C1287       C  0.52573780  0.89447659  0.93018611    -0.01400
C1288       C  0.50449312  0.87817015  0.91428432    -0.09500
C1289       C  0.51797302  0.86414345  0.90048139    -0.18300
C1290       C  0.55332290  0.86605036  0.90221287     0.04100
C1291       C  0.57333581  0.88010782  0.91898636     0.18300
C1292       C  0.55958047  0.89424298  0.93265331    -0.19700
C1293       C  0.60756306  0.88103914  0.92184428    -0.21000
C1294       C  0.62301279  0.86925652  0.90815066    -0.19500
C1295       C  0.60509301  0.85716307  0.89111021     0.19700
C1296       C  0.56996878  0.85534743  0.88783568     0.01800
C1297       C  0.55393916  0.84441368  0.87007596    -0.14300
C1298       C  0.57232895  0.83620286  0.85615571    -0.12000
C1299       C  0.60669056  0.83785956  0.85958975     0.01300
C1300       C  0.62273321  0.84795196  0.87711782    -0.24200
H1301       H  0.47808327  0.87765123  0.91213205     0.09300
H1302       H  0.50036502  0.85248076  0.88852046     0.12900
H1303       H  0.57594973  0.90615508  0.94507454     0.11600
H1304       H  0.62273084  0.89138108  0.93469189     0.12800
H1305       H  0.64972910  0.87062719  0.91072484     0.11800
H1306       H  0.52777928  0.84294089  0.86637311     0.08900
H1307       H  0.55971990  0.82855848  0.84260362     0.12200
H1308       H  0.64966171  0.84971970  0.87966155     0.14100
C1309       C  0.84885951  0.62487084  0.14027907    -0.01400
C1310       C  0.85160159  0.63513290  0.12171481    -0.09500
C1311       C  0.85961116  0.61604091  0.10816512    -0.18300
C1312       C  0.86560098  0.58598604  0.11276131     0.04100
C1313       C  0.86220417  0.57523464  0.13161657     0.18300
C1314       C  0.85398587  0.59472093  0.14513889    -0.19700
C1315       C  0.86781050  0.54562602  0.13687373    -0.21000
C1316       C  0.87794013  0.52722565  0.12391961    -0.19500
C1317       C  0.88276835  0.53793115  0.10533774     0.19700
C1318       C  0.87602792  0.56707340  0.09944718     0.01800
C1319       C  0.88132601  0.57690546  0.08056262    -0.14300
C1320       C  0.89514779  0.56042581  0.06836908    -0.12000
C1321       C  0.90321733  0.53285246  0.07432057     0.01300
C1322       C  0.89574264  0.52074362  0.09271551    -0.24200
H1323       H  0.84813840  0.65858714  0.11768994     0.09300
H1324       H  0.86149115  0.62595364  0.09425261     0.12900
H1325       H  0.85182674  0.58664111  0.15951743     0.11600
H1326       H  0.86500941  0.53706714  0.15119151     0.12800
H1327       H  0.88282427  0.50496691  0.12854198     0.11800
H1328       H  0.87617668  0.59806670  0.07483915     0.08900
H1329       H  0.90042388  0.56997025  0.05417995     0.12200
H1330       H  0.90218804  0.49958206  0.09744981     0.14100
C1331       C  0.78090516  0.63451846  0.13933020    -0.01400
C1332       C  0.76048090  0.59543034  0.13705785    -0.09500
C1333       C  0.73187305  0.57896064  0.12384680    -0.18300
C1334       C  0.72293815  0.60132512  0.11242341     0.04100
C1335       C  0.74428746  0.64102561  0.11471127     0.18300
C1336       C  0.77252133  0.65704558  0.12815372    -0.19700
C1337       C  0.73762617  0.66468561  0.10347454    -0.21000
C1338       C  0.71055008  0.64988542  0.08973717    -0.19500
C1339       C  0.68893375  0.61100700  0.08712084     0.19700
C1340       C  0.69413422  0.58600073  0.09863437     0.01800
C1341       C  0.67029455  0.54690898  0.09575644    -0.14300
C1342       C  0.64355618  0.53342592  0.08157582    -0.12000
C1343       C  0.63993433  0.55836861  0.06974321     0.01300
C1344       C  0.66237608  0.59710660  0.07284883    -0.24200
H1345       H  0.76648302  0.57755462  0.14566309     0.09300
H1346       H  0.71749397  0.54875687  0.12278428     0.12900
H1347       H  0.78850038  0.68734075  0.12981626     0.11600
H1348       H  0.75384676  0.69494025  0.10516038     0.12800
H1349       H  0.70650734  0.66903772  0.08107164     0.11800
H1350       H  0.67172793  0.52610290  0.10419849     0.08900
H1351       H  0.62637587  0.50334808  0.07956136     0.12200
H1352       H  0.65939917  0.61669745  0.06399150     0.14100
C1353       C  0.63848528  0.15221463  0.32007613    -0.01400
C1354       C  0.60893562  0.12161541  0.32924622    -0.09500
C1355       C  0.60511003  0.08603007  0.32833782    -0.18300
C1356       C  0.63063260  0.07976693  0.31792913     0.04100
C1357       C  0.65877585  0.11029360  0.30742664     0.18300
C1358       C  0.66298453  0.14635684  0.30889037    -0.19700
C1359       C  0.68297572  0.10473267  0.29588330    -0.21000
C1360       C  0.68087400  0.06990122  0.29514815    -0.19500
C1361       C  0.65537636  0.04016720  0.30639896     0.19700
C1362       C  0.62978962  0.04461755  0.31792331     0.01800
C1363       C  0.60589670  0.01439718  0.32969787    -0.14300
C1364       C  0.60852411  0.98187608  0.33058404    -0.12000
C1365       C  0.63412703  0.97783643  0.31942163     0.01300
C1366       C  0.65661725  0.00663168  0.30690406    -0.24200
H1367       H  0.58944227  0.12553633  0.33779017     0.09300
H1368       H  0.58194310  0.06405327  0.33598285     0.12900
H1369       H  0.68541075  0.16989578  0.30144866     0.11600
H1370       H  0.70399743  0.12760491  0.28755151     0.12800
H1371       H  0.70036433  0.06665314  0.28626269     0.11800
H1372       H  0.58612192  0.01568765  0.33905320     0.08900
H1373       H  0.59098277  0.96008408  0.34036848     0.12200
H1374       H  0.67698131  0.00400532  0.29838891     0.14100
C1375       C  0.70423047  0.51530629  0.34604245    -0.01400
C1376       C  0.67516900  0.51627325  0.35569954    -0.09500
C1377       C  0.67539375  0.54999369  0.35804575    -0.18300
C1378       C  0.70445452  0.58386474  0.35032451     0.04100
C1379       C  0.73372319  0.58259149  0.34035172     0.18300
C1380       C  0.73383907  0.54863200  0.33868392    -0.19700
C1381       C  0.76193624  0.61489170  0.33156595    -0.21000
C1382       C  0.76104385  0.64824850  0.33196835    -0.19500
C1383       C  0.73259411  0.65038946  0.34165603     0.19700
C1384       C  0.70467655  0.61858427  0.35152046     0.01800
C1385       C  0.67787121  0.62277903  0.36196968    -0.14300
C1386       C  0.67751472  0.65643849  0.36176340    -0.12000
C1387       C  0.70348333  0.68687016  0.35104794     0.01300
C1388       C  0.73138685  0.68394219  0.34124012    -0.24200
H1389       H  0.65189705  0.49066695  0.36134201     0.09300
H1390       H  0.65170827  0.54828753  0.36539812     0.12900
H1391       H  0.75595231  0.54775059  0.33084218     0.11600
H1392       H  0.78425171  0.61408195  0.32389499     0.12800
H1393       H  0.78264688  0.67247191  0.32458759     0.11800
H1394       H  0.65671403  0.60059687  0.37039500     0.08900
H1395       H  0.65563497  0.65804360  0.36944418     0.12200
H1396       H  0.75175323  0.70756163  0.33306007     0.14100
C1397       C  0.51697177  0.95617579  0.47585077    -0.01400
C1398       C  0.49812594  0.91736938  0.47255705    -0.09500
C1399       C  0.51188015  0.90209359  0.45951402    -0.18300
C1400       C  0.54519424  0.92536632  0.44933696     0.04100
C1401       C  0.56380174  0.96477737  0.45265088     0.18300
C1402       C  0.54974382  0.97962766  0.46582318    -0.19700
C1403       C  0.59639971  0.98931013  0.44279061    -0.21000
C1404       C  0.61086048  0.97570335  0.42949647    -0.19500
C1405       C  0.59336176  0.93715628  0.42586929     0.19700
C1406       C  0.56062542  0.91123532  0.43589529     0.01800
C1407       C  0.54492897  0.87248375  0.43193767    -0.14300
C1408       C  0.56037353  0.86028642  0.41816425    -0.12000
C1409       C  0.59169400  0.88621775  0.40782476     0.01300
C1410       C  0.60830221  0.92455099  0.41202534    -0.24200
H1411       H  0.47292826  0.89868980  0.48032516     0.09300
H1412       H  0.49585563  0.87204550  0.45769412     0.12900
H1413       H  0.56427497  0.00970111  0.46826108     0.11600
H1414       H  0.61067421  0.01933847  0.44526842     0.12800
H1415       H  0.63592870  0.99554263  0.42195158     0.11800
H1416       H  0.52059439  0.85098025  0.43915903     0.08900
H1417       H  0.54702150  0.83049810  0.41523014     0.12200
H1418       H  0.63284434  0.94487897  0.40429880     0.14100
C1419       C  0.56880765  0.69113335  0.40021166    -0.01400
C1420       C  0.57987349  0.66402771  0.39808742    -0.09500
C1421       C  0.56889335  0.63472898  0.41063925    -0.18300
C1422       C  0.54595596  0.63102543  0.42591339     0.04100
C1423       C  0.53164896  0.65615256  0.42717192     0.18300
C1424       C  0.54343581  0.68617921  0.41447596    -0.19700
C1425       C  0.50642546  0.65157280  0.44136679    -0.21000
C1426       C  0.49578438  0.62315594  0.45447960    -0.19500
C1427       C  0.51120241  0.59948477  0.45418098     0.19700
C1428       C  0.53696292  0.60343122  0.44001064     0.01800
C1429       C  0.55375166  0.58060006  0.44097088    -0.14300
C1430       C  0.54503246  0.55478246  0.45529790    -0.12000
C1431       C  0.51878438  0.55020831  0.46887344     0.01300
C1432       C  0.50174135  0.57244579  0.46819797    -0.24200
H1433       H  0.59843886  0.66608350  0.38692056     0.09300
H1434       H  0.57897991  0.61547678  0.40803443     0.12900
H1435       H  0.53401813  0.70637136  0.41613585     0.11600
H1436       H  0.49490838  0.67015569  0.44236693     0.12800
H1437       H  0.47616396  0.62037936  0.46525558     0.11800
H1438       H  0.57455294  0.58278151  0.43115099     0.08900
H1439       H  0.55858535  0.53795798  0.45570495     0.12200
H1440       H  0.48172714  0.56920787  0.47886851     0.14100
C1441       C  0.82546044  0.71337790  0.19527180    -0.01400
C1442       C  0.81891457  0.74277975  0.19093282    -0.09500
C1443       C  0.80647524  0.75838130  0.20444545    -0.18300
C1444       C  0.79937520  0.74428457  0.22270567     0.04100
C1445       C  0.80692990  0.71491805  0.22700348     0.18300
C1446       C  0.82015897  0.70015004  0.21339651    -0.19700
C1447       C  0.79994706  0.69940405  0.24470231    -0.21000
C1448       C  0.78438637  0.71149431  0.25816358    -0.19500
C1449       C  0.77591295  0.73977312  0.25433406     0.19700
C1450       C  0.78397693  0.75726427  0.23671201     0.01800
C1451       C  0.77577193  0.78653272  0.23391851    -0.14300
C1452       C  0.75972321  0.79742133  0.24797325    -0.12000
C1453       C  0.75086407  0.77917960  0.26509354     0.01300
C1454       C  0.75923728  0.75049840  0.26812660    -0.24200
H1455       H  0.82279080  0.75321964  0.17692532     0.09300
H1456       H  0.80160061  0.78061767  0.20006090     0.12900
H1457       H  0.82462433  0.67694897  0.21669621     0.11600
H1458       H  0.80579290  0.67714340  0.24805253     0.12800
H1459       H  0.77863894  0.69838159  0.27164947     0.11800
H1460       H  0.78156705  0.80161412  0.22107107     0.08900
H1461       H  0.75387291  0.81993213  0.24536841     0.12200
H1462       H  0.75324507  0.73670195  0.28145681     0.14100
C1463       C  0.31914455  0.01467183  0.35220011    -0.01400
C1464       C  0.34800469  0.01764919  0.36364581    -0.09500
C1465       C  0.38172309  0.05159314  0.36549942    -0.18300
C1466       C  0.38766936  0.08414550  0.35605468     0.04100
C1467       C  0.35720794  0.08183010  0.34561534     0.18300
C1468       C  0.32358509  0.04705817  0.34345879    -0.19700
C1469       C  0.36094465  0.11403891  0.33704786    -0.21000
C1470       C  0.39477071  0.14812622  0.33801913    -0.19500
C1471       C  0.42610352  0.15053281  0.34703451     0.19700
C1472       C  0.42302148  0.11856613  0.35621284     0.01800
C1473       C  0.45602485  0.12184370  0.36423907    -0.14300
C1474       C  0.49086874  0.15484249  0.36242399    -0.12000
C1475       C  0.49372279  0.18600331  0.35323264     0.01300
C1476       C  0.46105746  0.18416254  0.34611059    -0.24200
H1477       H  0.34519165  0.99307868  0.37064123     0.09300
H1478       H  0.40265245  0.05134493  0.37435396     0.12900
H1479       H  0.30112074  0.04507932  0.33481604     0.11600
H1480       H  0.33770514  0.11275411  0.32934676     0.12800
H1481       H  0.39689319  0.17241386  0.33102951     0.11800
H1482       H  0.45627094  0.09883990  0.37120237     0.08900
H1483       H  0.51588752  0.15581677  0.36794455     0.12200
H1484       H  0.46337229  0.20815401  0.33870393     0.14100
C1485       C  0.03085535  0.65268023  0.31217947    -0.01400
C1486       C  0.00452081  0.64624455  0.29830250    -0.09500
C1487       C  0.97022272  0.61236546  0.29750903    -0.18300
C1488       C  0.96119534  0.58357262  0.31059895     0.04100
C1489       C  0.98929820  0.58909264  0.32369451     0.18300
C1490       C  0.02349493  0.62347468  0.32447016    -0.19700
C1491       C  0.98261271  0.56075498  0.33636975    -0.21000
C1492       C  0.94821649  0.52731367  0.33664622    -0.19500
C1493       C  0.91925899  0.52182299  0.32461384     0.19700
C1494       C  0.92513013  0.54992899  0.31146870     0.01800
C1495       C  0.89409937  0.54381140  0.30040332    -0.14300
C1496       C  0.85864482  0.51155590  0.30264603    -0.12000
C1497       C  0.85344810  0.48394111  0.31543031     0.01300
C1498       C  0.88396265  0.48886620  0.32611535    -0.24200
H1499       H  0.00952597  0.66824579  0.28855250     0.09300
H1500       H  0.95112739  0.60976826  0.28667381     0.12900
H1501       H  0.04388102  0.62798222  0.33510297     0.11600
H1502       H  0.00401410  0.56463421  0.34627783     0.12800
H1503       H  0.94383845  0.50603966  0.34673196     0.11800
H1504       H  0.89598243  0.56403857  0.29039018     0.08900
H1505       H  0.83514481  0.50818443  0.29440150     0.12200
H1506       H  0.87964694  0.46772098  0.33629057     0.14100
C1507       C  0.11034192  0.69755261  0.40178056    -0.01400
C1508       C  0.13004965  0.70539696  0.41844251    -0.09500
C1509       C  0.11827530  0.67818847  0.43237202    -0.18300
C1510       C  0.08648307  0.64184484  0.42996610     0.04100
C1511       C  0.06686767  0.63400382  0.41295250     0.18300
C1512       C  0.07856373  0.66178775  0.39926000    -0.19700
C1513       C  0.03585789  0.59830945  0.40955873    -0.21000
C1514       C  0.02365206  0.57008663  0.42275214    -0.19500
C1515       C  0.04172946  0.57700509  0.43980153     0.19700
C1516       C  0.07336227  0.61299205  0.44373939     0.01800
C1517       C  0.08981185  0.61862299  0.46142543    -0.14300
C1518       C  0.07467924  0.59013409  0.47473729    -0.12000
C1519       C  0.04335854  0.55499080  0.47075558     0.01300
C1520       C  0.02748003  0.54839149  0.45316631    -0.24200
H1521       H  0.15480872  0.73268058  0.42072120     0.09300
H1522       H  0.13494959  0.68628920  0.44475280     0.12900
H1523       H  0.06330235  0.65509277  0.38634652     0.11600
H1524       H  0.02095169  0.59212421  0.39656322     0.12800
H1525       H  0.99950193  0.54277542  0.41969478     0.11800
H1526       H  0.11364873  0.64503749  0.46557190     0.08900
H1527       H  0.08700092  0.59578076  0.48837228     0.12200
H1528       H  0.00270522  0.52143776  0.45020487     0.14100
C1529       C  0.43881768  0.94524052  0.47534912    -0.01400
C1530       C  0.40550859  0.91111697  0.47856915    -0.09500
C1531       C  0.37885283  0.89346591  0.46454227    -0.18300
C1532       C  0.38427143  0.91004796  0.44685540     0.04100
C1533       C  0.41817673  0.94481327  0.44374224     0.18300
C1534       C  0.44519249  0.96163240  0.45781582    -0.19700
C1535       C  0.42446679  0.96320413  0.42676312    -0.21000
C1536       C  0.39734957  0.94851120  0.41296600    -0.19500
C1537       C  0.36351684  0.91457682  0.41560311     0.19700
C1538       C  0.35685278  0.89422636  0.43236477     0.01800
C1539       C  0.32278025  0.85931327  0.43391214    -0.14300
C1540       C  0.29580244  0.84618692  0.41980288    -0.12000
C1541       C  0.30159928  0.86744309  0.40375958     0.01300
C1542       C  0.33595553  0.90132248  0.40167213    -0.24200
H1543       H  0.40002737  0.89815211  0.49207190     0.09300
H1544       H  0.35380932  0.86741420  0.46810051     0.12900
H1545       H  0.47073556  0.98831490  0.45535487     0.11600
H1546       H  0.45020501  0.98967081  0.42428473     0.12800
H1547       H  0.40277006  0.96401079  0.40016572     0.11800
H1548       H  0.31604555  0.84167519  0.44593902     0.08900
H1549       H  0.26963862  0.81990017  0.42177815     0.12200
H1550       H  0.34105944  0.91784294  0.38923170     0.14100
C1551       C  0.89564155  0.70836598  0.19540136    -0.01400
C1552       C  0.91601710  0.74773755  0.19625986    -0.09500
C1553       C  0.94453856  0.76639487  0.20937204    -0.18300
C1554       C  0.95330509  0.74603371  0.22222593     0.04100
C1555       C  0.93176983  0.70601463  0.22144876     0.18300
C1556       C  0.90370443  0.68775059  0.20803163    -0.19700
C1557       C  0.93835300  0.68427707  0.23404953    -0.21000
C1558       C  0.96628555  0.70127026  0.24727422    -0.19500
C1559       C  0.98872930  0.74046721  0.24811082     0.19700
C1560       C  0.98269333  0.76363231  0.23571333     0.01800
C1561       C  0.00684453  0.80314068  0.23723758    -0.14300
C1562       C  0.03640486  0.81870515  0.25014823    -0.12000
C1563       C  0.04256202  0.79548613  0.26206894     0.01300
C1564       C  0.01782962  0.75640281  0.26110551    -0.24200
H1565       H  0.91001860  0.76413500  0.18660413     0.09300
H1566       H  0.95917357  0.79668889  0.20916130     0.12900
H1567       H  0.88764699  0.65728120  0.20752225     0.11600
H1568       H  0.92186805  0.65384108  0.23362644     0.12800
H1569       H  0.97078335  0.68352548  0.25675558     0.11800
H1570       H  0.00405455  0.82263515  0.22837304     0.08900
H1571       H  0.05486525  0.84890818  0.25055673     0.12200
H1572       H  0.02178285  0.73778776  0.27023221     0.14100
C1573       C  0.85668188  0.20744021  0.13669062    -0.01400
C1574       C  0.85340303  0.23876660  0.14113979    -0.09500
C1575       C  0.86462364  0.26841196  0.12861007    -0.18300
C1576       C  0.88023855  0.26783542  0.11127003     0.04100
C1577       C  0.88249565  0.23529850  0.10673378     0.18300
C1578       C  0.87050895  0.20547050  0.11936117    -0.19700
C1579       C  0.89758321  0.23306772  0.08979564    -0.21000
C1580       C  0.91126388  0.26274479  0.07735832    -0.19500
C1581       C  0.91020658  0.29544429  0.08152099     0.19700
C1582       C  0.89437981  0.29849725  0.09842029     0.01800
C1583       C  0.89395329  0.33228573  0.10171713    -0.14300
C1584       C  0.90874928  0.36171179  0.08878622    -0.12000
C1585       C  0.92468357  0.35860872  0.07223902     0.01300
C1586       C  0.92511315  0.32518148  0.06879190    -0.24200
H1587       H  0.84260631  0.24051800  0.15452361     0.09300
H1588       H  0.86144984  0.29168152  0.13302886     0.12900
H1589       H  0.87311669  0.18118171  0.11598180     0.11600
H1590       H  0.89926580  0.20835834  0.08622904     0.12800
H1591       H  0.92311104  0.26022397  0.06442414     0.11800
H1592       H  0.88236457  0.33680955  0.11415437     0.08900
H1593       H  0.90772893  0.38698239  0.09177583     0.12200
H1594       H  0.93681946  0.32195142  0.05596105     0.14100
C1595       C  0.78734867  0.13048810  0.13493778    -0.01400
C1596       C  0.78181002  0.10116002  0.12321018    -0.09500
C1597       C  0.75233739  0.08619051  0.11043854    -0.18300
C1598       C  0.72675241  0.09975332  0.10915308     0.04100
C1599       C  0.73302103  0.13016571  0.12081542     0.18300
C1600       C  0.76317765  0.14527776  0.13349709    -0.19700
C1601       C  0.70873686  0.14485156  0.11996132    -0.21000
C1602       C  0.67837483  0.13008228  0.10779499    -0.19500
C1603       C  0.67119162  0.09998033  0.09620611     0.19700
C1604       C  0.69516043  0.08421206  0.09681073     0.01800
C1605       C  0.68634922  0.05349789  0.08505877    -0.14300
C1606       C  0.65599728  0.03993662  0.07284657    -0.12000
C1607       C  0.63295208  0.05614940  0.07180598     0.01300
C1608       C  0.64046654  0.08589251  0.08383007    -0.24200
H1609       H  0.80012494  0.08929555  0.12417977     0.09300
H1610       H  0.75007838  0.06368661  0.10193978     0.12900
H1611       H  0.76712036  0.16772334  0.14269959     0.11600
H1612       H  0.71325233  0.16798725  0.12878923     0.12800
H1613       H  0.66031743  0.14230681  0.10746975     0.11800
H1614       H  0.70257811  0.03947134  0.08482858     0.08900
H1615       H  0.65104639  0.01688109  0.06386218     0.12200
H1616       H  0.62312285  0.09889591  0.08318799     0.14100
C1617       C  0.76422541  0.96575366  0.26723529    -0.01400
C1618       C  0.74853174  0.98907746  0.26548172    -0.09500
C1619       C  0.76008335  0.01587141  0.25161999    -0.18300
C1620       C  0.78817887  0.02069654  0.23885602     0.04100
C1621       C  0.80582924  0.99873775  0.24119663     0.18300
C1622       C  0.79345397  0.97116889  0.25519182    -0.19700
C1623       C  0.83540394  0.00430644  0.22943888    -0.21000
C1624       C  0.84766091  0.03110832  0.21540285    -0.19500
C1625       C  0.82988085  0.05217762  0.21241258     0.19700
C1626       C  0.79938821  0.04672072  0.22393414     0.01800
C1627       C  0.78078793  0.06694526  0.21979226    -0.14300
C1628       C  0.79250097  0.09209631  0.20512488    -0.12000
C1629       C  0.82319998  0.09827463  0.19421314     0.01300
C1630       C  0.84192469  0.07833650  0.19783385    -0.24200
H1631       H  0.72625001  0.98612711  0.27463364     0.09300
H1632       H  0.74648610  0.03247902  0.25139012     0.12900
H1633       H  0.80612349  0.95363293  0.25650176     0.11600
H1634       H  0.84927410  0.98796666  0.23116638     0.12800
H1635       H  0.87079811  0.03493939  0.20663143     0.11800
H1636       H  0.75657059  0.06347234  0.22734737     0.08900
H1637       H  0.77758143  0.10708248  0.20229745     0.12200
H1638       H  0.86538999  0.08280972  0.18912528     0.14100
C1639       C  0.38850142  0.22746542  0.13746800    -0.01400
C1640       C  0.36653404  0.22580622  0.12246246    -0.09500
C1641       C  0.38261031  0.25056712  0.10768090    -0.18300
C1642       C  0.42133588  0.27848586  0.10766007     0.04100
C1643       C  0.44338482  0.28049078  0.12317194     0.18300
C1644       C  0.42698208  0.25455636  0.13774123    -0.19700
C1645       C  0.48133906  0.30887171  0.12419811    -0.21000
C1646       C  0.49753436  0.33615629  0.11044783    -0.19500
C1647       C  0.47651455  0.33507857  0.09504225     0.19700
C1648       C  0.43852041  0.30537026  0.09314928     0.01800
C1649       C  0.41909024  0.30417296  0.07692075    -0.14300
C1650       C  0.43542907  0.33290101  0.06392914    -0.12000
C1651       C  0.47178889  0.36381274  0.06646369     0.01300
C1652       C  0.49279492  0.36405553  0.08175391    -0.24200
H1653       H  0.33675341  0.20494423  0.12213619     0.09300
H1654       H  0.36369424  0.24770431  0.09671674     0.12900
H1655       H  0.44389266  0.25582000  0.14948049     0.11600
H1656       H  0.49833966  0.31059611  0.13597324     0.12800
H1657       H  0.52661244  0.35841160  0.11194298     0.11800
H1658       H  0.39103114  0.28161366  0.07391361     0.08900
H1659       H  0.41884618  0.33132714  0.05200391     0.12200
H1660       H  0.52110088  0.38754668  0.08375575     0.14100
C1661       C  0.47390595  0.09884499  0.06952431    -0.01400
C1662       C  0.49453929  0.11346237  0.08578003    -0.09500
C1663       C  0.48138623  0.12765347  0.09968959    -0.18300
C1664       C  0.44701315  0.12768026  0.09771296     0.04100
C1665       C  0.42757123  0.11499998  0.08068976     0.18300
C1666       C  0.44104918  0.10081682  0.06690661    -0.19700
C1667       C  0.39410659  0.11546480  0.07765742    -0.21000
C1668       C  0.37894186  0.12754904  0.09133234    -0.19500
C1669       C  0.39653370  0.13890885  0.10847843     0.19700
C1670       C  0.43081753  0.13916553  0.11201292     0.01800
C1671       C  0.44657603  0.14979406  0.12986295    -0.14300
C1672       C  0.42888081  0.15959403  0.14353821    -0.12000
C1673       C  0.39543426  0.15961788  0.13976548     0.01300
C1674       C  0.37947046  0.14928725  0.12224650    -0.24200
H1675       H  0.52013680  0.11248627  0.08810923     0.09300
H1676       H  0.49838885  0.13784008  0.11193274     0.12900
H1677       H  0.42512858  0.09013214  0.05426429     0.11600
H1678       H  0.37930792  0.10602450  0.06466346     0.12800
H1679       H  0.35283490  0.12732702  0.08858962     0.11800
H1680       H  0.47211326  0.15013680  0.13375503     0.08900
H1681       H  0.44130718  0.16716998  0.15712966     0.12200
H1682       H  0.35308877  0.14851915  0.11948565     0.14100
C1683       C  0.31727376  0.11960991  0.19632478    -0.01400
C1684       C  0.27817123  0.09525368  0.19620847    -0.09500
C1685       C  0.26118258  0.06499662  0.20856959    -0.18300
C1686       C  0.28304583  0.05846514  0.22154025     0.04100
C1687       C  0.32272326  0.08389116  0.22165187     0.18300
C1688       C  0.33932135  0.11377894  0.20904858    -0.19700
C1689       C  0.34578836  0.07934719  0.23429114    -0.21000
C1690       C  0.33034911  0.05035360  0.24708532    -0.19500
C1691       C  0.29149722  0.02486512  0.24741819     0.19700
C1692       C  0.26720156  0.02803429  0.23452054     0.01800
C1693       C  0.22825967  0.00072987  0.23534051    -0.14300
C1694       C  0.21405515  0.97239300  0.24882361    -0.12000
C1695       C  0.23810162  0.97036744  0.26189904     0.01300
C1696       C  0.27688134  0.99647361  0.26083553    -0.24200
H1697       H  0.26085934  0.09910301  0.18618185     0.09300
H1698       H  0.23098879  0.04720406  0.20763152     0.12900
H1699       H  0.36967221  0.13250293  0.20896887     0.11600
H1700       H  0.37600886  0.09859674  0.23439903     0.12800
H1701       H  0.34897672  0.04791807  0.25684913     0.11800
H1702       H  0.20807995  0.00073467  0.22585400     0.08900
H1703       H  0.18400533  0.95255187  0.24926261     0.12200
H1704       H  0.29596950  0.99508840  0.27070134     0.14100
C1705       C  0.33383676  0.32457704  0.34168678    -0.01400
C1706       C  0.36314079  0.35312565  0.35195721    -0.09500
C1707       C  0.40048881  0.36223101  0.34917323    -0.18300
C1708       C  0.40964025  0.34249396  0.33615970     0.04100
C1709       C  0.37955157  0.31221627  0.32651501     0.18300
C1710       C  0.34223527  0.30405085  0.32908432    -0.19700
C1711       C  0.38684324  0.29016777  0.31439627    -0.21000
C1712       C  0.42331057  0.29667413  0.31214553    -0.19500
C1713       C  0.45348222  0.32639163  0.32134083     0.19700
C1714       C  0.44738988  0.35084791  0.33281866     0.01800
C1715       C  0.47933195  0.38224657  0.34058910    -0.14300
C1716       C  0.51537218  0.38702979  0.33839275    -0.12000
C1717       C  0.52031805  0.36058525  0.32857560     0.01300
C1718       C  0.48962068  0.33107002  0.31961240    -0.24200
H1719       H  0.35739492  0.36962182  0.36169009     0.09300
H1720       H  0.42151134  0.38456125  0.35752989     0.12900
H1721       H  0.31968431  0.28184829  0.32114108     0.11600
H1722       H  0.36405310  0.26708794  0.30699457     0.12800
H1723       H  0.42794007  0.27828806  0.30317897     0.11800
H1724       H  0.47724927  0.40320380  0.34860586     0.08900
H1725       H  0.53904596  0.41013299  0.34532617     0.12200
H1726       H  0.49374502  0.31090466  0.31181127     0.14100
C1727       C  0.82838168  0.31323682  0.33958845    -0.01400
C1728       C  0.85824785  0.34373273  0.34856269    -0.09500
C1729       C  0.89520159  0.35123660  0.34642037    -0.18300
C1730       C  0.90353456  0.32887894  0.33471516     0.04100
C1731       C  0.87286813  0.29745799  0.32594739     0.18300
C1732       C  0.83562805  0.28936713  0.32885365    -0.19700
C1733       C  0.87964964  0.27537790  0.31361781    -0.21000
C1734       C  0.91631369  0.28410472  0.30955850    -0.19500
C1735       C  0.94703003  0.31446573  0.31813651     0.19700
C1736       C  0.94115391  0.33701955  0.33105425     0.01800
C1737       C  0.97315921  0.36629090  0.33993381    -0.14300
C1738       C  0.00917067  0.37176608  0.33666917    -0.12000
C1739       C  0.01458423  0.34903286  0.32413074     0.01300
C1740       C  0.98355809  0.32134115  0.31443378    -0.24200
H1741       H  0.85310293  0.36282238  0.35669519     0.09300
H1742       H  0.91668569  0.37572378  0.35342450     0.12900
H1743       H  0.81260012  0.26633845  0.32151402     0.11600
H1744       H  0.85645154  0.25157933  0.30680288     0.12800
H1745       H  0.92065048  0.26662888  0.29982525     0.11800
H1746       H  0.97119033  0.38439258  0.35005067     0.08900
H1747       H  0.03273921  0.39304251  0.34447616     0.12200
H1748       H  0.98743475  0.30309162  0.30499897     0.14100
C1749       C  0.03420834  0.47752727  0.46983447    -0.01400
C1750       C  0.07265183  0.48906111  0.47027559    -0.09500
C1751       C  0.08777509  0.47336969  0.45823602    -0.18300
C1752       C  0.06468328  0.44563300  0.44524842     0.04100
C1753       C  0.02594318  0.43535253  0.44441986     0.18300
C1754       C  0.01109084  0.45096944  0.45677676    -0.19700
C1755       C  0.00206366  0.40914485  0.43142417    -0.21000
C1756       C  0.01570241  0.39273370  0.41920778    -0.19500
C1757       C  0.05343955  0.40160528  0.41985984     0.19700
C1758       C  0.07847221  0.42782275  0.43300658     0.01800
C1759       C  0.11605526  0.43486551  0.43328188    -0.14300
C1760       C  0.12856187  0.41789677  0.42049814    -0.12000
C1761       C  0.10411532  0.39324841  0.40706019     0.01300
C1762       C  0.06633608  0.38473703  0.40716644    -0.24200
H1763       H  0.09080916  0.50942418  0.48040940     0.09300
H1764       H  0.11752999  0.48332494  0.45948475     0.12900
H1765       H  0.98127457  0.44202193  0.45648197     0.11600
H1766       H  0.97260026  0.40135992  0.43065391     0.12800
H1767       H  0.99649690  0.37279407  0.40920077     0.11800
H1768       H  0.13653762  0.45362234  0.44310549     0.08900
H1769       H  0.15783738  0.42498449  0.42083593     0.12200
H1770       H  0.04693290  0.36563043  0.39695155     0.14100
C1771       C  0.30203967  0.42928449  0.40299999    -0.01400
C1772       C  0.33827682  0.43756738  0.39762048    -0.09500
C1773       C  0.36736255  0.44959427  0.41040089    -0.18300
C1774       C  0.36101273  0.45305758  0.42926105     0.04100
C1775       C  0.32468239  0.44641912  0.43457557     0.18300
C1776       C  0.29568009  0.43491465  0.42142136    -0.19700
C1777       C  0.31728647  0.45021880  0.45306368    -0.21000
C1778       C  0.34503127  0.46008074  0.46641785    -0.19500
C1779       C  0.38075923  0.46593175  0.46168482     0.19700
C1780       C  0.38921745  0.46232897  0.44302771     0.01800
C1781       C  0.42526382  0.46726720  0.43903627    -0.14300
C1782       C  0.45188592  0.47605369  0.45287954    -0.12000
C1783       C  0.44382707  0.48057922  0.47111802     0.01300
C1784       C  0.40805312  0.47506104  0.47550157    -0.24200
H1785       H  0.34394318  0.43375076  0.38343131     0.09300
H1786       H  0.39430357  0.45528097  0.40507945     0.12900
H1787       H  0.26761722  0.42831812  0.42572101     0.11600
H1788       H  0.28973199  0.44527809  0.45725028     0.12800
H1789       H  0.33833741  0.46270422  0.48060698     0.11800
H1790       H  0.43368603  0.46404707  0.42540055     0.08900
H1791       H  0.47899600  0.47910940  0.44933342     0.12200
H1792       H  0.40159512  0.47808202  0.48968963     0.14100
C1793       C  0.89643273  0.17089522  0.19432371    -0.01400
C1794       C  0.88681547  0.17358291  0.21258156    -0.09500
C1795       C  0.91331507  0.18385092  0.22677791    -0.18300
C1796       C  0.95068058  0.19190960  0.22317612     0.04100
C1797       C  0.95999856  0.18829201  0.20467111     0.18300
C1798       C  0.93309793  0.17821797  0.19051017    -0.19700
C1799       C  0.99625013  0.19507352  0.20037844    -0.21000
C1800       C  0.02377016  0.20611749  0.21394602    -0.19500
C1801       C  0.01604809  0.21121300  0.23218799     0.19700
C1802       C  0.97931193  0.20403707  0.23710866     0.01800
C1803       C  0.97332103  0.21051878  0.25562954    -0.14300
C1804       C  0.00283422  0.22506545  0.26840883    -0.12000
C1805       C  0.03918446  0.23279521  0.26344849     0.01300
C1806       C  0.04526118  0.22477078  0.24538703    -0.24200
H1807       H  0.85867206  0.16808515  0.21585267     0.09300
H1808       H  0.90371962  0.18533596  0.24042940     0.12900
H1809       H  0.94061780  0.17587537  0.17642397     0.11600
H1810       H  0.00350101  0.19209969  0.18634357     0.12800
H1811       H  0.05162234  0.21149146  0.21004746     0.11800
H1812       H  0.94641004  0.20577108  0.26053728     0.08900
H1813       H  0.99732386  0.23097882  0.28225524     0.12200
H1814       H  0.07336103  0.23110587  0.24130494     0.14100
C1815       C  0.23868388  0.26750722  0.26006123    -0.01400
C1816       C  0.21720992  0.24992174  0.24432498    -0.09500
C1817       C  0.22992063  0.23378273  0.23111344    -0.18300
C1818       C  0.26450001  0.23418946  0.23334718     0.04100
C1819       C  0.28590148  0.25172499  0.24941895     0.18300
C1820       C  0.27320242  0.26842985  0.26232651    -0.19700
C1821       C  0.31977702  0.25217678  0.25271316    -0.21000
C1822       C  0.33316432  0.23580819  0.24033411    -0.19500
C1823       C  0.31338509  0.21905465  0.22415944     0.19700
C1824       C  0.27876908  0.21798134  0.22033355     0.01800
C1825       C  0.26061433  0.20149808  0.20348102    -0.14300
C1826       C  0.27689316  0.18799649  0.19079269    -0.12000
C1827       C  0.31109710  0.18953330  0.19467758     0.01300
C1828       C  0.32877199  0.20440928  0.21152182    -0.24200
H1829       H  0.19027326  0.24833265  0.24226853     0.09300
H1830       H  0.21181582  0.22067722  0.21943580     0.12900
H1831       H  0.28995720  0.28130209  0.27453723     0.11600
H1832       H  0.33607389  0.26526738  0.26501037     0.12800
H1833       H  0.35955175  0.23678107  0.24331146     0.11800
H1834       H  0.23442730  0.19968677  0.19949949     0.08900
H1835       H  0.26307644  0.17690530  0.17771743     0.12200
H1836       H  0.35556419  0.20613058  0.21440258     0.14100
loop_ 
_geom_bond_atom_site_label_1 
_geom_bond_atom_site_label_2 
_geom_bond_distance 
_geom_bond_site_symmetry_2 
_ccdc_geom_bond_type 
O1           Mg3   2.162       .  S
O1           Mg9   2.139       .  S
O1           C36   1.234       .  S
C2           O15   1.235       .  S
C2           O39   1.269       .  A
C2           H41   1.081       .  S
Mg3          O32   2.149       .  S
Mg3          O47   2.286       .  S
Mg3          O43   2.256       .  S
Mg3          O14   2.294       .  S
O4          Mg46   2.149       .  S
O4          Mg29   2.167       .  S
O4           C25   1.238       .  S
O5           C36   1.270       .  A
O5          Mg29   2.306       .  S
C6            O8   1.274       .  A
C6           O20   1.273       .  A
C6         C1771   1.480       .  S
O7           C35   1.275       .  A
O7           Mg9   2.318       .  S
O8          Mg40   2.296       .  S
Mg9          O15   2.143       .  S
Mg9          O23   2.256       .  S
Mg9          O11   2.313       .  S
C10          O48   1.267       .  A
C10          O16   1.271       .  A
C10        C1705   1.475       .  S
O11          C18   1.276       .  A
H12          C25   1.081       .  S
C13          O27   1.234       .  S
C13          O28   1.270       .  A
C13          H38   1.081       .  S
O14          C37   1.269       .  A
O15         Mg29   2.165       .  S
O16         Mg46   2.295       .  S
C17          O30   1.273       .  A
C17          O22   1.281       .  A
C17        C1815   1.494       .  S
C18          O45   1.279       .  A
C18        C1805   1.491       .  S
Mg19         O26   2.139       .  S
Mg19         O27   2.138       .  S
Mg19         O20   2.289       .  S
Mg19         O21   2.318       .  S
Mg19         O48   2.243       .  S
O21          C25   1.275       .  A
O22         Mg29   2.349       .  S
O23          C42   1.269       .  A
O24          C44   1.278       .  A
O24         Mg40   2.332       .  S
O26         Mg40   2.167       .  S
O26          C37   1.235       .  S
O27         Mg46   2.171       .  S
O28         Mg40   2.312       .  S
Mg29         O45   2.318       .  S
O30         Mg46   2.261       .  S
H31          C36   1.081       .  S
O32         Mg40   2.155       .  S
O32          C35   1.239       .  S
H33          C35   1.081       .  S
H34          C37   1.081       .  S
O39         Mg46   2.292       .  S
C42          O47   1.270       .  A
C42        C1739   1.473       .  S
O43          C44   1.271       .  A
C44        C1761   1.491       .  S
C49        C1827   1.486       .  S
C49          C50   1.415       .  A
C49          C54   1.406       .  A
C50        C1683   1.479       .  S
C50          C51   1.406       .  A
C51          H56   1.085       .  S
C51          C52   1.401       .  A
C52        C1673   1.481       .  S
C52          C53   1.410       .  A
C53        C1639   1.478       .  S
C53          C54   1.405       .  A
C54          H55   1.084       .  S
C57        C1629   1.476       .  S
C57          C58   1.414       .  A
C57          C62   1.405       .  A
C58        C1793   1.495       .  S
C58          C59   1.408       .  A
C59          H64   1.084       .  S
C59          C60   1.412       .  A
C60        C1573   1.480       .  S
C60          C61   1.414       .  A
C61        C1595   1.490       .  S
C61          C62   1.403       .  A
C62          H63   1.085       .  S
O65         Mg67   2.160       .  S
O65         Mg73   2.138       .  S
O65         C100   1.236       .  S
C66          O79   1.235       .  S
C66         O103   1.269       .  A
C66         H105   1.081       .  S
Mg67         O96   2.161       .  S
Mg67        O111   2.336       .  S
Mg67        O107   2.248       .  S
Mg67         O78   2.290       .  S
O68        Mg110   2.156       .  S
O68         Mg93   2.159       .  S
O68          C89   1.237       .  S
O69         C100   1.271       .  A
O69         Mg93   2.309       .  S
C70          O72   1.280       .  A
C70          O84   1.271       .  A
C70        C1563   1.495       .  S
O71          C99   1.273       .  A
O71         Mg73   2.311       .  S
O72        Mg104   2.339       .  S
Mg73         O79   2.137       .  S
Mg73         O87   2.239       .  S
Mg73         O75   2.309       .  S
C74         O112   1.269       .  A
C74          O80   1.275       .  A
C74        C1485   1.482       .  S
O75          C82   1.275       .  A
H76          C89   1.081       .  S
C77          O91   1.236       .  S
C77          O92   1.270       .  A
C77         H102   1.081       .  S
O78         C101   1.268       .  A
O79         Mg93   2.153       .  S
O80        Mg110   2.312       .  S
C81          O94   1.272       .  A
C81          O86   1.279       .  A
C81        C1507   1.485       .  S
C82         O109   1.276       .  A
C82        C1541   1.491       .  S
Mg83         O90   2.134       .  S
Mg83         O91   2.146       .  S
Mg83         O84   2.261       .  S
Mg83         O85   2.303       .  S
Mg83        O112   2.256       .  S
O85          C89   1.272       .  A
O86         Mg93   2.331       .  S
O87         C106   1.269       .  A
O88         C108   1.281       .  A
O88        Mg104   2.343       .  S
O90        Mg104   2.171       .  S
O90         C101   1.235       .  S
O91        Mg110   2.149       .  S
O92        Mg104   2.302       .  S
Mg93        O109   2.306       .  S
O94        Mg110   2.251       .  S
H95         C100   1.081       .  S
O96        Mg104   2.174       .  S
O96          C99   1.238       .  S
H97          C99   1.081       .  S
H98         C101   1.081       .  S
O103       Mg110   2.295       .  S
C106        O111   1.277       .  A
C106       C1463   1.480   1_565  S
O107        C108   1.273       .  A
C108       C1695   1.487       .  S
O113       Mg115   2.157       .  S
O113       Mg121   2.141       .  S
O113        C148   1.237       .  S
C114        O127   1.234       .  S
C114        O151   1.267       .  A
C114        H153   1.081       .  S
Mg115       O144   2.155       .  S
Mg115       O159   2.302       .  S
Mg115       O155   2.242       .  S
Mg115       O126   2.292       .  S
O116       Mg158   2.164       .  S
O116       Mg141   2.158       .  S
O116        C137   1.237       .  S
O117        C148   1.272       .  A
O117       Mg141   2.309       .  S
C118        O120   1.274       .  A
C118        O132   1.271       .  A
C118       C1617   1.484       .  S
O119        C147   1.272       .  A
O119       Mg121   2.305       .  S
O120       Mg152   2.293       .  S
Mg121       O127   2.123       .  S
Mg121       O135   2.235       .  S
Mg121       O123   2.256       .  S
C122        O160   1.268       .  A
C122        O128   1.277       .  A
C122       C1365   1.480       .  S
O123        C130   1.270       .  A
H124        C137   1.081       .  S
C125        O139   1.236       .  S
C125        O140   1.271       .  A
C125        H150   1.081       .  S
O126        C149   1.267       .  A
O127       Mg141   2.162       .  S
O128       Mg158   2.321       .  S
C129        O142   1.275       .  A
C129        O134   1.281       .  A
C129       C1409   1.485       .  S
C130        O157   1.279       .  A
C130       C1419   1.493       .  S
Mg131       O138   2.130       .  S
Mg131       O139   2.146       .  S
Mg131       O132   2.262       .  S
Mg131       O133   2.298       .  S
Mg131       O160   2.246       .  S
O133        C137   1.271       .  A
O134       Mg141   2.338       .  S
O135        C154   1.266       .  A
O136        C156   1.278       .  A
O136       Mg152   2.332       .  S
O138       Mg152   2.159       .  S
O138        C149   1.233       .  S
O139       Mg158   2.159       .  S
O140       Mg152   2.309       .  S
Mg141       O157   2.337       .  S
O142       Mg158   2.260       .  S
H143        C148   1.081       .  S
O144       Mg152   2.149       .  S
O144        C147   1.238       .  S
H145        C147   1.081       .  S
H146        C149   1.081       .  S
O151       Mg158   2.287       .  S
C154        O159   1.272       .  A
C154       C1387   1.473       .  S
O155        C156   1.271       .  A
C156       C1453   1.481       .  S
C161       C1441   1.483       .  S
C161        C162   1.413       .  A
C161        C166   1.402       .  A
C162       C1551   1.488       .  S
C162        C163   1.409       .  A
C163        H168   1.084       .  S
C163        C164   1.409       .  A
C164       C1309   1.489       .  S
C164        C165   1.417       .  A
C165       C1331   1.486       .  S
C165        C166   1.404       .  A
C166        H167   1.085       .  S
O169       Mg171   2.180   1_544  S
O169       Mg177   2.137   1_545  S
O169        C204   1.235       .  S
C170        O183   1.235   1_565  S
C170        O207   1.267       .  A
C170        H209   1.081       .  S
Mg171       O200   2.144       .  S
Mg171       O215   2.270       .  S
Mg171       O211   2.287       .  S
Mg171       O182   2.291   1_565  S
O172       Mg214   2.145   1_545  S
O172       Mg197   2.135       .  S
O172        C193   1.239   1_554  S
O173        C204   1.271       .  A
O173       Mg197   2.315       .  S
C174        O176   1.276       .  A
C174        O188   1.275       .  A
C174       C1287   1.481       .  S
O175        C203   1.276       .  A
O175       Mg177   2.321       .  S
O176       Mg208   2.284       .  S
Mg177       O183   2.137   1_565  S
Mg177       O191   2.257       .  S
Mg177       O179   2.303   1_565  S
C178        O216   1.270   1_545  A
C178        O184   1.268   1_556  A
C178       C1233   1.476       .  S
O179        C186   1.276       .  A
H180        C193   1.081   1_554  S
C181        O195   1.233       .  S
C181        O196   1.269       .  A
C181        H206   1.081   1_556  S
O182        C205   1.268       .  A
O183       Mg197   2.167       .  S
O184       Mg214   2.261   1_545  S
C185        O198   1.271       .  A
C185        O190   1.281       .  A
C185       C1607   1.496       .  S
C186        O213   1.275       .  A
C186       C1661   1.483       .  S
Mg187       O194   2.150       .  S
Mg187       O195   2.140       .  S
Mg187       O188   2.288       .  S
Mg187       O189   2.310   1_565  S
Mg187       O216   2.272       .  S
O189        C193   1.273       .  A
O190       Mg197   2.360       .  S
O191        C210   1.268       .  A
O192        C212   1.282       .  A
O192       Mg208   2.363       .  S
O194       Mg208   2.177       .  S
O194        C205   1.235   1_565  S
O195       Mg214   2.156   1_556  S
O196       Mg208   2.304       .  S
Mg197       O213   2.280       .  S
O198       Mg214   2.254   1_545  S
H199        C204   1.081   1_556  S
O200       Mg208   2.142       .  S
O200        C203   1.240   1_556  S
H201        C203   1.081   1_556  S
H202        C205   1.081       .  S
O207       Mg214   2.286       .  S
C210        O215   1.268   1_554  A
C210       C1255   1.472       .  S
O211        C212   1.274       .  A
C212       C1265   1.503       .  S
O217       Mg219   2.148   1_556  S
O217       Mg225   2.144       .  S
O217        C252   1.235       .  S
C218        O231   1.233       .  S
C218        O255   1.267       .  A
C218        H257   1.081       .  S
Mg219       O248   2.158       .  S
Mg219       O263   2.314   1_554  S
Mg219       O259   2.254       .  S
Mg219       O230   2.290       .  S
O220       Mg262   2.158       .  S
O220       Mg245   2.165       .  S
O220        C241   1.237   1_556  S
O221        C252   1.270       .  A
O221       Mg245   2.301       .  S
C222        O224   1.275       .  A
C222        O236   1.271       .  A
C222       C1651   1.484       .  S
O223        C251   1.271       .  A
O223       Mg225   2.297       .  S
O224       Mg256   2.303       .  S
Mg225       O231   2.136       .  S
Mg225       O239   2.246       .  S
Mg225       O227   2.264       .  S
C226        O264   1.267       .  A
C226        O232   1.274   1_554  A
C226       C1133   1.476       .  S
O227        C234   1.272       .  A
H228        C241   1.081   1_556  S
C229        O243   1.237       .  S
C229        O244   1.273       .  A
C229        H254   1.081   1_554  S
O230        C253   1.268       .  A
O231       Mg245   2.170       .  S
O232       Mg262   2.314       .  S
C233        O246   1.272       .  A
C233        O238   1.283       .  A
C233       C1199   1.490       .  S
C234        O261   1.280       .  A
C234       C1177   1.493       .  S
Mg235       O242   2.130       .  S
Mg235       O243   2.142       .  S
Mg235       O236   2.266       .  S
Mg235       O237   2.309       .  S
Mg235       O264   2.244       .  S
O237        C241   1.272       .  A
O238       Mg245   2.358       .  S
O239        C258   1.269       .  A
O240        C260   1.279       .  A
O240       Mg256   2.329       .  S
O242       Mg256   2.161       .  S
O242        C253   1.234       .  S
O243       Mg262   2.160   1_554  S
O244       Mg256   2.313       .  S
Mg245       O261   2.331       .  S
O246       Mg262   2.243       .  S
H247        C252   1.081   1_554  S
O248       Mg256   2.146       .  S
O248        C251   1.238   1_554  S
H249        C251   1.081       .  S
H250        C253   1.081       .  S
O255       Mg262   2.290       .  S
C258        O263   1.276       .  A
C258       C1167   1.479       .  S
O259        C260   1.274       .  A
C260       C1343   1.484       .  S
O265       Mg267   2.149   1_456  S
O265       Mg273   2.146   1_455  S
O265        C300   1.236       .  S
C266        O279   1.235   1_655  S
C266        O303   1.269       .  A
C266        H305   1.081       .  S
Mg267       O296   2.157       .  S
Mg267       O311   2.306       .  S
Mg267       O307   2.235       .  S
Mg267       O278   2.292   1_655  S
O268       Mg310   2.151       .  S
O268       Mg293   2.171       .  S
O268        C289   1.239   1_556  S
O269        C300   1.270       .  A
O269       Mg293   2.304       .  S
C270        O272   1.277       .  A
C270        O284   1.275       .  A
C270       C1321   1.482       .  S
O271        C299   1.272   1_556  A
O271       Mg273   2.303       .  S
O272       Mg304   2.311       .  S
Mg273       O279   2.152   1_655  S
Mg273       O287   2.284       .  S
Mg273       O275   2.253   1_655  S
C274        O312   1.271       .  A
C274        O280   1.274       .  A
C274       C1079   1.483       .  S
O275        C282   1.270       .  A
H276        C289   1.081       .  S
C277        O291   1.236       .  S
C277        O292   1.272       .  A
C277        H302   1.081   1_554  S
O278        C301   1.268       .  A
O279       Mg293   2.177       .  S
O280       Mg310   2.312   1_554  S
C281        O294   1.273       .  A
C281        O286   1.283       .  A
C281       C1089   1.494       .  S
C282        O309   1.280       .  A
C282       C1111   1.492       .  S
Mg283       O290   2.143   1_455  S
Mg283       O291   2.140   1_455  S
Mg283       O284   2.300   1_455  S
Mg283       O285   2.313       .  S
Mg283       O312   2.262       .  S
O285        C289   1.274       .  A
O286       Mg293   2.370       .  S
O287        C306   1.271       .  A
O288        C308   1.282       .  A
O288       Mg304   2.360       .  S
O290       Mg304   2.160       .  S
O290        C301   1.234   1_655  S
O291       Mg310   2.165   1_654  S
O292       Mg304   2.315       .  S
Mg293       O309   2.332       .  S
O294       Mg310   2.255       .  S
H295        C300   1.081   1_554  S
O296       Mg304   2.159       .  S
O296        C299   1.237       .  S
H297        C299   1.081       .  S
H298        C301   1.081       .  S
O303       Mg310   2.294   1_655  S
C306        O311   1.274   1_556  A
C306       C1045   1.489       .  S
O307        C308   1.270       .  A
C308       C1585   1.491       .  S
O313       Mg315   2.148       .  S
O313       Mg321   2.128       .  S
O313        C348   1.233       .  S
C314        O327   1.235       .  S
C314        O351   1.268       .  A
C314        H353   1.081       .  S
Mg315       O344   2.138       .  S
Mg315       O359   2.273       .  S
Mg315       O355   2.217       .  S
Mg315       O326   2.287       .  S
O316       Mg358   2.157       .  S
O316       Mg341   2.162       .  S
O316        C337   1.239       .  S
O317        C348   1.268       .  A
O317       Mg341   2.299       .  S
C318        O320   1.277       .  A
C318        O332   1.275       .  A
C318       C1035   1.491       .  S
O319        C347   1.276       .  A
O319       Mg321   2.326       .  S
O320       Mg352   2.302       .  S
Mg321       O327   2.128       .  S
Mg321       O335   2.263       .  S
Mg321       O323   2.307       .  S
C322        O360   1.269       .  A
C322        O328   1.273       .  A
C322        C913   1.477       .  S
O323        C330   1.278       .  A
H324        C337   1.081       .  S
C325        O339   1.234       .  S
C325        O340   1.269       .  A
C325        H350   1.081       .  S
O326        C349   1.269       .  A
O327       Mg341   2.178       .  S
O328       Mg358   2.294       .  S
C329        O342   1.273       .  A
C329        O334   1.279       .  A
C329        C979   1.488       .  S
C330        O357   1.279       .  A
C330        C957   1.496       .  S
Mg331       O338   2.128       .  S
Mg331       O339   2.143       .  S
Mg331       O332   2.294       .  S
Mg331       O333   2.311       .  S
Mg331       O360   2.245       .  S
O333        C337   1.274       .  A
O334       Mg341   2.336       .  S
O335        C354   1.269       .  A
O336        C356   1.279       .  A
O336       Mg352   2.356       .  S
O338       Mg352   2.175       .  S
O338        C349   1.236       .  S
O339       Mg358   2.166       .  S
O340       Mg352   2.305       .  S
Mg341       O357   2.311       .  S
O342       Mg358   2.260       .  S
H343        C348   1.081       .  S
O344       Mg352   2.155       .  S
O344        C347   1.240       .  S
H345        C347   1.081       .  S
H346        C349   1.081       .  S
O351       Mg358   2.285       .  S
C354        O359   1.267       .  A
C354        C947   1.475       .  S
O355        C356   1.267       .  A
C356       C1013   1.488       .  S
C361       C1211   1.486       .  S
C361        C362   1.412       .  A
C361        C366   1.405       .  A
C362       C1123   1.486       .  S
C362        C363   1.408       .  A
C363        H368   1.084       .  S
C363        C364   1.411       .  A
C364        C903   1.492       .  S
C364        C365   1.418       .  A
C365        C991   1.490       .  S
C365        C366   1.409       .  A
C366        H367   1.085       .  S
C369       C1101   1.491       .  S
C369        C370   1.421       .  A
C369        C374   1.416       .  A
C370       C1277   1.504       .  S
C370        C371   1.410       .  A
C371        H376   1.084       .  S
C371        C372   1.411       .  A
C372        C969   1.487       .  S
C372        C373   1.416       .  A
C373        C869   1.500       .  S
C373        C374   1.412       .  A
C374        H375   1.084       .  S
O377       Mg379   2.167       .  S
O377       Mg385   2.125       .  S
O377        C412   1.233       .  S
C378        O391   1.235       .  S
C378        O415   1.269       .  A
C378        H417   1.081       .  S
Mg379       O408   2.146       .  S
Mg379       O423   2.284       .  S
Mg379       O419   2.240       .  S
Mg379       O390   2.289       .  S
O380       Mg422   2.160       .  S
O380       Mg405   2.168       .  S
O380        C401   1.239       .  S
O381        C412   1.269       .  A
O381       Mg405   2.308       .  S
C382        O384   1.279       .  A
C382        O396   1.276       .  A
C382        C837   1.495       .  S
O383        C411   1.278       .  A
O383       Mg385   2.334       .  S
O384       Mg416   2.325       .  S
Mg385       O391   2.151       .  S
Mg385       O399   2.278       .  S
Mg385       O387   2.324       .  S
C386        O424   1.266       .  A
C386        O392   1.273       .  A
C386        C771   1.470   1_545  S
O387        C394   1.278       .  A
H388        C401   1.081       .  S
C389        O403   1.233       .  S
C389        O404   1.269       .  A
C389        H414   1.081       .  S
O390        C413   1.269       .  A
O391       Mg405   2.175       .  S
O392       Mg422   2.307       .  S
C393        O406   1.271       .  A
C393        O398   1.282       .  A
C393        C803   1.488       .  S
C394        O421   1.280       .  A
C394        C891   1.492       .  S
Mg395       O402   2.126       .  S
Mg395       O403   2.142       .  S
Mg395       O396   2.314       .  S
Mg395       O397   2.312       .  S
Mg395       O424   2.223       .  S
O397        C401   1.274       .  A
O398       Mg405   2.359       .  S
O399        C418   1.270       .  A
O400        C420   1.279       .  A
O400       Mg416   2.341       .  S
O402       Mg416   2.158       .  S
O402        C413   1.236       .  S
O403       Mg422   2.160       .  S
O404       Mg416   2.304       .  S
Mg405       O421   2.312       .  S
O406       Mg422   2.242       .  S
H407        C412   1.081       .  S
O408       Mg416   2.170       .  S
O408        C411   1.240       .  S
H409        C411   1.081       .  S
H410        C413   1.081       .  S
O415       Mg422   2.293       .  S
C418        O423   1.267       .  A
C418        C781   1.477       .  S
O419        C420   1.270       .  A
C420        C847   1.489       .  S
O425       Mg427   2.153       .  S
O425       Mg433   2.141       .  S
O425        C460   1.236       .  S
C426        O439   1.234       .  S
C426        O463   1.268       .  A
C426        H465   1.081       .  S
Mg427       O456   2.164       .  S
Mg427       O471   2.332       .  S
Mg427       O467   2.249       .  S
Mg427       O438   2.295       .  S
O428       Mg470   2.153       .  S
O428       Mg453   2.147       .  S
O428        C449   1.237       .  S
O429        C460   1.271       .  A
O429       Mg453   2.306       .  S
C430        O432   1.279       .  A
C430        O444   1.274       .  A
C430        C881   1.494       .  S
O431        C459   1.273       .  A
O431       Mg433   2.308       .  S
O432       Mg464   2.335       .  S
Mg433       O439   2.137       .  S
Mg433       O447   2.244       .  S
Mg433       O435   2.275       .  S
C434        O472   1.268       .  A
C434        O440   1.273       .  A
C434        C649   1.471       .  S
O435        C442   1.272       .  A
H436        C449   1.081       .  S
C437        O451   1.236       .  S
C437        O452   1.272       .  A
C437        H462   1.081       .  S
O438        C461   1.268       .  A
O439       Mg453   2.164       .  S
O440       Mg470   2.304       .  S
C441        O454   1.274       .  A
C441        O446   1.279       .  A
C441        C737   1.492       .  S
C442        O469   1.274       .  A
C442        C727   1.476       .  S
Mg443       O450   2.142       .  S
Mg443       O451   2.147       .  S
Mg443       O444   2.296       .  S
Mg443       O445   2.306       .  S
Mg443       O472   2.240       .  S
O445        C449   1.272       .  A
O446       Mg453   2.329       .  S
O447        C466   1.268       .  A
O448        C468   1.281       .  A
O448       Mg464   2.343       .  S
O450       Mg464   2.154       .  S
O450        C461   1.234       .  S
O451       Mg470   2.168       .  S
O452       Mg464   2.313       .  S
Mg453       O469   2.297       .  S
O454       Mg470   2.271       .  S
H455        C460   1.081       .  S
O456       Mg464   2.175       .  S
O456        C459   1.238       .  S
H457        C459   1.081       .  S
H458        C461   1.081       .  S
O463       Mg470   2.292       .  S
C466        O471   1.277       .  A
C466        C671   1.484       .  S
O467        C468   1.273       .  A
C468        C693   1.489       .  S
C473       C1189   1.486       .  S
C473        C474   1.411       .  A
C473        C478   1.404       .  A
C474       C1299   1.480       .  S
C474        C475   1.403       .  A
C475        H480   1.084       .  S
C475        C476   1.408       .  A
C476        C815   1.493       .  S
C476        C477   1.418       .  A
C477        C705   1.481       .  S
C477        C478   1.407       .  A
C478        H479   1.085       .  S
C481       C1519   1.482       .  S
C481        C482   1.414       .  A
C481        C486   1.407       .  A
C482       C1749   1.482       .  S
C482        C483   1.403   1_455  A
C483        H488   1.085       .  S
C483        C484   1.403       .  A
C484        C859   1.476       .  S
C484        C485   1.411       .  A
C485        C749   1.482       .  S
C485        C486   1.404   1_655  A
C486        H487   1.085       .  S
C489       C1431   1.486       .  S
C489        C490   1.415       .  A
C489        C494   1.405       .  A
C490       C1783   1.484       .  S
C490        C491   1.406       .  A
C491        H496   1.084       .  S
C491        C492   1.405       .  A
C492       C1023   1.486       .  S
C492        C493   1.415       .  A
C493        C715   1.483       .  S
C493        C494   1.406       .  A
C494        H495   1.084       .  S
C497       C1529   1.491       .  S
C497        C498   1.415       .  A
C497        C502   1.404       .  A
C498       C1397   1.487       .  S
C498        C499   1.411       .  A
C499        H504   1.084   1_565  S
C499        C500   1.408   1_565  A
C500        C825   1.499       .  S
C500        C501   1.416       .  A
C501       C1001   1.479       .  S
C501        C502   1.409   1_545  A
C502        H503   1.085       .  S
O505       Mg507   2.148   1_545  S
O505       Mg513   2.162   1_556  S
O505        C540   1.235       .  S
C506        O519   1.234       .  S
C506        O543   1.268       .  A
C506        H545   1.081       .  S
Mg507       O536   2.168   1_556  S
Mg507       O551   2.302       .  S
Mg507       O547   2.274       .  S
Mg507       O518   2.282       .  S
O508       Mg550   2.168   1_556  S
O508       Mg533   2.149       .  S
O508        C529   1.235       .  S
O509        C540   1.269       .  A
O509       Mg533   2.294   1_655  S
C510        O512   1.273   1_455  A
C510        O524   1.273       .  A
C510       C1067   1.478       .  S
O511        C539   1.268       .  A
O511       Mg513   2.288   1_565  S
O512       Mg544   2.269       .  S
Mg513       O519   2.125   1_655  S
Mg513       O527   2.228       .  S
Mg513       O515   2.298   1_554  S
C514        O552   1.267   1_545  A
C514        O520   1.276   1_556  A
C514       C1243   1.467       .  S
O515        C522   1.275       .  A
H516        C529   1.081       .  S
C517        O531   1.236       .  S
C517        O532   1.269       .  A
C517        H542   1.081       .  S
O518        C541   1.266       .  A
O519       Mg533   2.161   1_554  S
O520       Mg550   2.314       .  S
C521        O534   1.274       .  A
C521        O526   1.277       .  A
C521       C1145   1.480       .  S
C522        O549   1.275   1_655  A
C522       C1057   1.484       .  S
Mg523       O530   2.109   1_455  S
Mg523       O531   2.162   1_556  S
Mg523       O524   2.293   1_556  S
Mg523       O525   2.291   1_565  S
Mg523       O552   2.206       .  S
O525        C529   1.269       .  A
O526       Mg533   2.304   1_554  S
O527        C546   1.270   1_545  A
O528        C548   1.274       .  A
O528       Mg544   2.282   1_556  S
O530       Mg544   2.152   1_556  S
O530        C541   1.234       .  S
O531       Mg550   2.143   1_565  S
O532       Mg544   2.293   1_455  S
Mg533       O549   2.292       .  S
O534       Mg550   2.255       .  S
H535        C540   1.081       .  S
O536       Mg544   2.134       .  S
O536        C539   1.236       .  S
H537        C539   1.081       .  S
H538        C541   1.081       .  S
O543       Mg550   2.290       .  S
C546        O551   1.275   1_554  A
C546       C1221   1.469       .  S
O547        C548   1.275       .  A
C548       C1155   1.476       .  S
O553       Mg555   2.145       .  S
O553       Mg561   2.135       .  S
O553        C588   1.236       .  S
C554        O567   1.236       .  S
C554        O591   1.271       .  A
C554        H593   1.081       .  S
Mg555       O584   2.127       .  S
Mg555       O599   2.263       .  S
Mg555       O595   2.256       .  S
Mg555       O566   2.302       .  S
O556       Mg598   2.140       .  S
O556       Mg581   2.133       .  S
O556        C577   1.236       .  S
O557        C588   1.271       .  A
O557       Mg581   2.305       .  S
C558        O560   1.270       .  A
C558        O572   1.273       .  A
C558       C1375   1.470       .  S
O559        C587   1.274       .  A
O559       Mg561   2.320       .  S
O560       Mg592   2.257       .  S
Mg561       O567   2.144       .  S
Mg561       O575   2.286       .  S
Mg561       O563   2.332       .  S
C562        O600   1.269       .  A
C562        O568   1.270       .  A
C562       C1717   1.463       .  S
O563        C570   1.278       .  A
H564        C577   1.081       .  S
C565        O579   1.235       .  S
C565        O580   1.269       .  A
C565        H590   1.081       .  S
O566        C589   1.271       .  A
O567       Mg581   2.142       .  S
O568       Mg598   2.271       .  S
C569        O582   1.269       .  A
C569        O574   1.276       .  A
C569       C1475   1.473       .  S
C570        O597   1.271       .  A
C570       C1353   1.474       .  S
Mg571       O578   2.138       .  S
Mg571       O579   2.151       .  S
Mg571       O572   2.290       .  S
Mg571       O573   2.301       .  S
Mg571       O600   2.263       .  S
O573        C577   1.271       .  A
O574       Mg581   2.317       .  S
O575        C594   1.272       .  A
O576        C596   1.273       .  A
O576       Mg592   2.314       .  S
O578       Mg592   2.145       .  S
O578        C589   1.237       .  S
O579       Mg598   2.139       .  S
O580       Mg592   2.302       .  S
Mg581       O597   2.248       .  S
O582       Mg598   2.258       .  S
H583        C588   1.081       .  S
O584       Mg592   2.143       .  S
O584        C587   1.238       .  S
H585        C587   1.081       .  S
H586        C589   1.081       .  S
O591       Mg598   2.302       .  S
C594        O599   1.268       .  A
C594       C1727   1.467       .  S
O595        C596   1.268       .  A
C596       C1497   1.471       .  S
O601       Mg603   2.120       .  S
O601       Mg609   2.172       .  S
O601        C636   1.233       .  S
C602        O615   1.236       .  S
C602        O639   1.269       .  A
C602        H641   1.081       .  S
Mg603       O632   2.143       .  S
Mg603       O647   2.257       .  S
Mg603       O643   2.249       .  S
Mg603       O614   2.301       .  S
O604       Mg646   2.154       .  S
O604       Mg629   2.138       .  S
O604        C625   1.235       .  S
O605        C636   1.265       .  A
O605       Mg629   2.281       .  S
C606        O608   1.269       .  A
C606        O620   1.279       .  A
C606        C925   1.474       .  S
O607        C635   1.267       .  A
O607       Mg609   2.293       .  S
O608       Mg640   2.222       .  S
Mg609       O615   2.138       .  S
Mg609       O623   2.289       .  S
Mg609       O611   2.304       .  S
C610        O648   1.277       .  A
C610        O616   1.270       .  A
C610        C683   1.480       .  S
O611        C618   1.277       .  A
H612        C625   1.081       .  S
C613        O627   1.233       .  S
C613        O628   1.265       .  A
C613        H638   1.081       .  S
O614        C637   1.272       .  A
O615       Mg629   2.171       .  S
O616       Mg646   2.257       .  S
C617        O630   1.267       .  A
C617        O622   1.271       .  A
C617        C759   1.473       .  S
C618        O645   1.270       .  A
C618        C935   1.471       .  S
Mg619       O626   2.155       .  S
Mg619       O627   2.159       .  S
Mg619       O620   2.325       .  S
Mg619       O621   2.302       .  S
Mg619       O648   2.304       .  S
O621        C625   1.269       .  A
O622       Mg629   2.278       .  S
O623        C642   1.275       .  A
O624        C644   1.273       .  A
O624       Mg640   2.288       .  S
O626       Mg640   2.171       .  S
O626        C637   1.237       .  S
O627       Mg646   2.120       .  S
O628       Mg640   2.283       .  S
Mg629       O645   2.233       .  S
O630       Mg646   2.238       .  S
H631        C636   1.081       .  S
O632       Mg640   2.130       .  S
O632        C635   1.234       .  S
H633        C635   1.081       .  S
H634        C637   1.081       .  S
O639       Mg646   2.289       .  S
C642        O647   1.271       .  A
C642        C661   1.480       .  S
O643        C644   1.268       .  A
C644        C793   1.478       .  S
C649        C650   1.397       .  A
C649        C654   1.402   1_655  A
C650        H663   1.084       .  S
C650        C651   1.395   1_655  A
C651        H664   1.078       .  S
C651        C652   1.417       .  A
C652        C658   1.425       .  A
C652        C653   1.420       .  A
C653        C655   1.401       .  A
C653        C654   1.402       .  A
C654        H665   1.085       .  S
C655        H666   1.084       .  S
C655        C656   1.391       .  A
C656        H667   1.084       .  S
C656        C657   1.399       .  A
C657        C658   1.423       .  A
C657        C662   1.408       .  A
C658        C659   1.409       .  A
C659        H668   1.078       .  S
C659        C660   1.389       .  A
C660        H669   1.083       .  S
C660        C661   1.404       .  A
C661        C662   1.402       .  A
C662        H670   1.084       .  S
C671        C672   1.404       .  A
C671        C676   1.402       .  A
C672        H685   1.083       .  S
C672        C673   1.396       .  A
C673        H686   1.078       .  S
C673        C674   1.411       .  A
C674        C680   1.429       .  A
C674        C675   1.424       .  A
C675        C677   1.399       .  A
C675        C676   1.408       .  A
C676        H687   1.084       .  S
C677        H688   1.084       .  S
C677        C678   1.390       .  A
C678        H689   1.084       .  S
C678        C679   1.401       .  A
C679        C680   1.418       .  A
C679        C684   1.399       .  A
C680        C681   1.419       .  A
C681        H690   1.078       .  S
C681        C682   1.402       .  A
C682        H691   1.083       .  S
C682        C683   1.398       .  A
C683        C684   1.406       .  A
C684        H692   1.085       .  S
C693        C694   1.404       .  A
C693        C698   1.404       .  A
C694        H707   1.083       .  S
C694        C695   1.394       .  A
C695        H708   1.077       .  S
C695        C696   1.412       .  A
C696        C702   1.431       .  A
C696        C697   1.423       .  A
C697        C699   1.401       .  A
C697        C698   1.410       .  A
C698        H709   1.084       .  S
C699        H710   1.084       .  S
C699        C700   1.393       .  A
C700        H711   1.084       .  S
C700        C701   1.400       .  A
C701        C702   1.422       .  A
C701        C706   1.407       .  A
C702        C703   1.416       .  A
C703        H712   1.078       .  S
C703        C704   1.397       .  A
C704        H713   1.084       .  S
C704        C705   1.397       .  A
C705        C706   1.401       .  A
C706        H714   1.085       .  S
C715        C716   1.398       .  A
C715        C720   1.401       .  A
C716        H729   1.083       .  S
C716        C717   1.393       .  A
C717        H730   1.077       .  S
C717        C718   1.415       .  A
C718        C724   1.429       .  A
C718        C719   1.423       .  A
C719        C721   1.401       .  A
C719        C720   1.408       .  A
C720        H731   1.085       .  S
C721        H732   1.084       .  S
C721        C722   1.393       .  A
C722        H733   1.084       .  S
C722        C723   1.400       .  A
C723        C724   1.424       .  A
C723        C728   1.410       .  A
C724        C725   1.413       .  A
C725        H734   1.076       .  S
C725        C726   1.391       .  A
C726        H735   1.084       .  S
C726        C727   1.399       .  A
C727        C728   1.402       .  A
C728        H736   1.085       .  S
C737        C738   1.404       .  A
C737        C742   1.404       .  A
C738        H751   1.083       .  S
C738        C739   1.402       .  A
C739        H752   1.078       .  S
C739        C740   1.416       .  A
C740        C746   1.435       .  A
C740        C741   1.422       .  A
C741        C743   1.400       .  A
C741        C742   1.406       .  A
C742        H753   1.084       .  S
C743        H754   1.084   1_655  S
C743        C744   1.390   1_655  A
C744        H755   1.084       .  S
C744        C745   1.399   1_455  A
C745        C746   1.424       .  A
C745        C750   1.407       .  A
C746        C747   1.417       .  A
C747        H756   1.077       .  S
C747        C748   1.400       .  A
C748        H757   1.083       .  S
C748        C749   1.399       .  A
C749        C750   1.398       .  A
C750        H758   1.085   1_655  S
C759        C760   1.400       .  A
C759        C764   1.402       .  A
C760        H773   1.084       .  S
C760        C761   1.391       .  A
C761        H774   1.078       .  S
C761        C762   1.413       .  A
C762        C768   1.423       .  A
C762        C763   1.420       .  A
C763        C765   1.400       .  A
C763        C764   1.403       .  A
C764        H775   1.084       .  S
C765        H776   1.084       .  S
C765        C766   1.392       .  A
C766        H777   1.084       .  S
C766        C767   1.400       .  A
C767        C768   1.422       .  A
C767        C772   1.405       .  A
C768        C769   1.411       .  A
C769        H778   1.078       .  S
C769        C770   1.390       .  A
C770        H779   1.084   1_565  S
C770        C771   1.400       .  A
C771        C772   1.400       .  A
C772        H780   1.084       .  S
C781        C782   1.400   1_655  A
C781        C786   1.404       .  A
C782        H795   1.084       .  S
C782        C783   1.394       .  A
C783        H796   1.078       .  S
C783        C784   1.414       .  A
C784        C790   1.426       .  A
C784        C785   1.421       .  A
C785        C787   1.401       .  A
C785        C786   1.406   1_455  A
C786        H797   1.084       .  S
C787        H798   1.084   1_455  S
C787        C788   1.393       .  A
C788        H799   1.084       .  S
C788        C789   1.400       .  A
C789        C790   1.421       .  A
C789        C794   1.407       .  A
C790        C791   1.412       .  A
C791        H800   1.078       .  S
C791        C792   1.393       .  A
C792        H801   1.083       .  S
C792        C793   1.402       .  A
C793        C794   1.404       .  A
C794        H802   1.084       .  S
C803        C804   1.402       .  A
C803        C808   1.404       .  A
C804        H817   1.084       .  S
C804        C805   1.396   1_545  A
C805        H818   1.077       .  S
C805        C806   1.413       .  A
C806        C812   1.434       .  A
C806        C807   1.424       .  A
C807        C809   1.401       .  A
C807        C808   1.414   1_565  A
C808        H819   1.084       .  S
C809        H820   1.084       .  S
C809        C810   1.394       .  A
C810        H821   1.084       .  S
C810        C811   1.401       .  A
C811        C812   1.422       .  A
C811        C816   1.410       .  A
C812        C813   1.416       .  A
C813        H822   1.077       .  S
C813        C814   1.398       .  A
C814        H823   1.084       .  S
C814        C815   1.401       .  A
C815        C816   1.404       .  A
C816        H824   1.084       .  S
C825        C826   1.402       .  A
C825        C830   1.404       .  A
C826        H839   1.083       .  S
C826        C827   1.402       .  A
C827        H840   1.078       .  S
C827        C828   1.416       .  A
C828        C834   1.439       .  A
C828        C829   1.425       .  A
C829        C831   1.400       .  A
C829        C830   1.413       .  A
C830        H841   1.084       .  S
C831        H842   1.084       .  S
C831        C832   1.393       .  A
C832        H843   1.084       .  S
C832        C833   1.401       .  A
C833        C834   1.422       .  A
C833        C838   1.411       .  A
C834        C835   1.418       .  A
C835        H844   1.078       .  S
C835        C836   1.406       .  A
C836        H845   1.083       .  S
C836        C837   1.402       .  A
C837        C838   1.407       .  A
C838        H846   1.085       .  S
C847        C848   1.402       .  A
C847        C852   1.406       .  A
C848        H861   1.083       .  S
C848        C849   1.402       .  A
C849        H862   1.077       .  S
C849        C850   1.417       .  A
C850        C856   1.433       .  A
C850        C851   1.421       .  A
C851        C853   1.400       .  A
C851        C852   1.404       .  A
C852        H863   1.084       .  S
C853        H864   1.084       .  S
C853        C854   1.388       .  A
C854        H865   1.084   1_655  S
C854        C855   1.398       .  A
C855        C856   1.424       .  A
C855        C860   1.404       .  A
C856        C857   1.417       .  A
C857        H866   1.077       .  S
C857        C858   1.400       .  A
C858        H867   1.083       .  S
C858        C859   1.397       .  A
C859        C860   1.397       .  A
C860        H868   1.085   1_655  S
C869        C870   1.403       .  A
C869        C874   1.402       .  A
C870        H883   1.083       .  S
C870        C871   1.407       .  A
C871        H884   1.078       .  S
C871        C872   1.417       .  A
C872        C878   1.442       .  A
C872        C873   1.425       .  A
C873        C875   1.399       .  A
C873        C874   1.412       .  A
C874        H885   1.084       .  S
C875        H886   1.084       .  S
C875        C876   1.391       .  A
C876        H887   1.084       .  S
C876        C877   1.400       .  A
C877        C878   1.422       .  A
C877        C882   1.409   1_455  A
C878        C879   1.420   1_455  A
C879        H888   1.078       .  S
C879        C880   1.409       .  A
C880        H889   1.083       .  S
C880        C881   1.403       .  A
C881        C882   1.405       .  A
C882        H890   1.085       .  S
C891        C892   1.402       .  A
C891        C896   1.406       .  A
C892        H905   1.083       .  S
C892        C893   1.403       .  A
C893        H906   1.078       .  S
C893        C894   1.417   1_655  A
C894        C900   1.437       .  A
C894        C895   1.422       .  A
C895        C897   1.401       .  A
C895        C896   1.411   1_455  A
C896        H907   1.085   1_655  S
C897        H908   1.084       .  S
C897        C898   1.393       .  A
C898        H909   1.084       .  S
C898        C899   1.400       .  A
C899        C900   1.424       .  A
C899        C904   1.411       .  A
C900        C901   1.416       .  A
C901        H910   1.077       .  S
C901        C902   1.400       .  A
C902        H911   1.083       .  S
C902        C903   1.400       .  A
C903        C904   1.403       .  A
C904        H912   1.085       .  S
C913        C914   1.400       .  A
C913        C918   1.403       .  A
C914        H927   1.083       .  S
C914        C915   1.395       .  A
C915        H928   1.077       .  S
C915        C916   1.415       .  A
C916        C922   1.428       .  A
C916        C917   1.421       .  A
C917        C919   1.400       .  A
C917        C918   1.403       .  A
C918        H929   1.085       .  S
C919        H930   1.084       .  S
C919        C920   1.389       .  A
C920        H931   1.084       .  S
C920        C921   1.399       .  A
C921        C922   1.424       .  A
C921        C926   1.405       .  A
C922        C923   1.413       .  A
C923        H932   1.077       .  S
C923        C924   1.393       .  A
C924        H933   1.084       .  S
C924        C925   1.400       .  A
C925        C926   1.399       .  A
C926        H934   1.085       .  S
C935        C936   1.399       .  A
C935        C940   1.399       .  A
C936        H949   1.084       .  S
C936        C937   1.395       .  A
C937        H950   1.077       .  S
C937        C938   1.415       .  A
C938        C944   1.427       .  A
C938        C939   1.422       .  A
C939        C941   1.399       .  A
C939        C940   1.401       .  A
C940        H951   1.085       .  S
C941        H952   1.084       .  S
C941        C942   1.387       .  A
C942        H953   1.084       .  S
C942        C943   1.398       .  A
C943        C944   1.423       .  A
C943        C948   1.401       .  A
C944        C945   1.414       .  A
C945        H954   1.077       .  S
C945        C946   1.394   1_565  A
C946        H955   1.084       .  S
C946        C947   1.402       .  A
C947        C948   1.400   1_545  A
C948        H956   1.085       .  S
C957        C958   1.404       .  A
C957        C962   1.405       .  A
C958        H971   1.083       .  S
C958        C959   1.407   1_545  A
C959        H972   1.078       .  S
C959        C960   1.418       .  A
C960        C966   1.438       .  A
C960        C961   1.422       .  A
C961        C963   1.399       .  A
C961        C962   1.405   1_565  A
C962        H973   1.084       .  S
C963        H974   1.084       .  S
C963        C964   1.388       .  A
C964        H975   1.084       .  S
C964        C965   1.398       .  A
C965        C966   1.424       .  A
C965        C970   1.405       .  A
C966        C967   1.418       .  A
C967        H976   1.078       .  S
C967        C968   1.405       .  A
C968        H977   1.083       .  S
C968        C969   1.401       .  A
C969        C970   1.397       .  A
C970        H978   1.085       .  S
C979        C980   1.403       .  A
C979        C984   1.403       .  A
C980        H993   1.083       .  S
C980        C981   1.404       .  A
C981        H994   1.078       .  S
C981        C982   1.418       .  A
C982        C988   1.436       .  A
C982        C983   1.422       .  A
C983        C985   1.399       .  A
C983        C984   1.404       .  A
C984        H995   1.084       .  S
C985        H996   1.084       .  S
C985        C986   1.388       .  A
C986        H997   1.084       .  S
C986        C987   1.398       .  A
C987        C988   1.424       .  A
C987        C992   1.405       .  A
C988        C989   1.417       .  A
C989        H998   1.078       .  S
C989        C990   1.402       .  A
C990        H999   1.083       .  S
C990        C991   1.401       .  A
C991        C992   1.400       .  A
C992       H1000   1.085       .  S
C1001      C1002   1.396   1_545  A
C1001      C1006   1.401       .  A
C1002      H1015   1.084       .  S
C1002      C1003   1.394   1_565  A
C1003      H1016   1.076   1_545  S
C1003      C1004   1.417       .  A
C1004      C1010   1.430       .  A
C1004      C1005   1.422       .  A
C1005      C1007   1.401       .  A
C1005      C1006   1.408       .  A
C1006      H1017   1.084       .  S
C1007      H1018   1.084       .  S
C1007      C1008   1.394       .  A
C1008      H1019   1.084       .  S
C1008      C1009   1.401       .  A
C1009      C1010   1.424       .  A
C1009      C1014   1.414       .  A
C1010      C1011   1.410       .  A
C1011      H1020   1.076       .  S
C1011      C1012   1.389       .  A
C1012      H1021   1.083       .  S
C1012      C1013   1.404       .  A
C1013      C1014   1.404       .  A
C1014      H1022   1.084       .  S
C1023      C1024   1.400       .  A
C1023      C1028   1.398       .  A
C1024      H1037   1.083       .  S
C1024      C1025   1.401       .  A
C1025      H1038   1.078       .  S
C1025      C1026   1.416       .  A
C1026      C1032   1.435       .  A
C1026      C1027   1.425       .  A
C1027      C1029   1.398       .  A
C1027      C1028   1.406       .  A
C1028      H1039   1.085       .  S
C1029      H1040   1.084       .  S
C1029      C1030   1.388       .  A
C1030      H1041   1.084       .  S
C1030      C1031   1.400       .  A
C1031      C1032   1.421       .  A
C1031      C1036   1.402       .  A
C1032      C1033   1.418       .  A
C1033      H1042   1.078       .  S
C1033      C1034   1.405       .  A
C1034      H1043   1.083       .  S
C1034      C1035   1.403       .  A
C1035      C1036   1.405       .  A
C1036      H1044   1.084       .  S
C1045      C1046   1.402       .  A
C1045      C1050   1.406       .  A
C1046      H1059   1.083   1_556  S
C1046      C1047   1.399       .  A
C1047      H1060   1.077   1_556  S
C1047      C1048   1.416       .  A
C1048      C1054   1.434       .  A
C1048      C1049   1.422       .  A
C1049      C1051   1.401   1_655  A
C1049      C1050   1.410       .  A
C1050      H1061   1.085       .  S
C1051      H1062   1.083       .  S
C1051      C1052   1.393       .  A
C1052      H1063   1.084       .  S
C1052      C1053   1.400   1_455  A
C1053      C1054   1.424       .  A
C1053      C1058   1.411       .  A
C1054      C1055   1.414       .  A
C1055      H1064   1.077   1_556  S
C1055      C1056   1.397       .  A
C1056      H1065   1.084   1_556  S
C1056      C1057   1.402       .  A
C1057      C1058   1.402       .  A
C1058      H1066   1.084   1_655  S
C1067      C1068   1.398       .  A
C1067      C1072   1.403       .  A
C1068      H1081   1.083   1_455  S
C1068      C1069   1.396       .  A
C1069      H1082   1.077   1_455  S
C1069      C1070   1.415       .  A
C1070      C1076   1.429       .  A
C1070      C1071   1.422       .  A
C1071      C1073   1.401   1_554  A
C1071      C1072   1.406       .  A
C1072      H1083   1.085   1_554  S
C1073      H1084   1.084       .  S
C1073      C1074   1.392       .  A
C1074      H1085   1.084       .  S
C1074      C1075   1.400   1_556  A
C1075      C1076   1.422       .  A
C1075      C1080   1.408       .  A
C1076      C1077   1.413       .  A
C1077      H1086   1.078       .  S
C1077      C1078   1.395       .  A
C1078      H1087   1.083       .  S
C1078      C1079   1.402       .  A
C1079      C1080   1.404       .  A
C1080      H1088   1.085       .  S
C1089      C1090   1.405       .  A
C1089      C1094   1.405       .  A
C1090      H1103   1.084       .  S
C1090      C1091   1.396       .  A
C1091      H1104   1.077       .  S
C1091      C1092   1.412       .  A
C1092      C1098   1.435       .  A
C1092      C1093   1.424       .  A
C1093      C1095   1.401       .  A
C1093      C1094   1.416       .  A
C1094      H1105   1.084       .  S
C1095      H1106   1.084       .  S
C1095      C1096   1.395       .  A
C1096      H1107   1.084       .  S
C1096      C1097   1.402       .  A
C1097      C1098   1.422       .  A
C1097      C1102   1.412       .  A
C1098      C1099   1.417       .  A
C1099      H1108   1.077       .  S
C1099      C1100   1.399       .  A
C1100      H1109   1.083       .  S
C1100      C1101   1.398       .  A
C1101      C1102   1.404       .  A
C1102      H1110   1.084       .  S
C1111      C1112   1.401       .  A
C1111      C1116   1.408       .  A
C1112      H1125   1.083       .  S
C1112      C1113   1.407       .  A
C1113      H1126   1.078       .  S
C1113      C1114   1.420       .  A
C1114      C1120   1.436       .  A
C1114      C1115   1.419       .  A
C1115      C1117   1.400       .  A
C1115      C1116   1.401       .  A
C1116      H1127   1.085       .  S
C1117      H1128   1.084       .  S
C1117      C1118   1.388       .  A
C1118      H1129   1.084       .  S
C1118      C1119   1.398       .  A
C1119      C1120   1.426       .  A
C1119      C1124   1.408       .  A
C1120      C1121   1.415       .  A
C1121      H1130   1.078       .  S
C1121      C1122   1.401       .  A
C1122      H1131   1.083       .  S
C1122      C1123   1.400       .  A
C1123      C1124   1.398       .  A
C1124      H1132   1.085       .  S
C1133      C1134   1.398       .  A
C1133      C1138   1.401       .  A
C1134      H1147   1.083       .  S
C1134      C1135   1.399       .  A
C1135      H1148   1.077       .  S
C1135      C1136   1.417       .  A
C1136      C1142   1.430       .  A
C1136      C1137   1.422       .  A
C1137      C1139   1.399       .  A
C1137      C1138   1.402       .  A
C1138      H1149   1.085       .  S
C1139      H1150   1.084       .  S
C1139      C1140   1.388       .  A
C1140      H1151   1.084       .  S
C1140      C1141   1.399       .  A
C1141      C1142   1.423       .  A
C1141      C1146   1.403       .  A
C1142      C1143   1.414       .  A
C1143      H1152   1.077       .  S
C1143      C1144   1.397       .  A
C1144      H1153   1.083       .  S
C1144      C1145   1.402       .  A
C1145      C1146   1.401       .  A
C1146      H1154   1.085       .  S
C1155      C1156   1.399       .  A
C1155      C1160   1.402       .  A
C1156      H1169   1.083       .  S
C1156      C1157   1.397       .  A
C1157      H1170   1.077       .  S
C1157      C1158   1.416       .  A
C1158      C1164   1.428       .  A
C1158      C1159   1.421       .  A
C1159      C1161   1.400   1_556  A
C1159      C1160   1.402       .  A
C1160      H1171   1.085   1_556  S
C1161      H1172   1.084       .  S
C1161      C1162   1.389       .  A
C1162      H1173   1.084       .  S
C1162      C1163   1.399   1_554  A
C1163      C1164   1.423       .  A
C1163      C1168   1.406       .  A
C1164      C1165   1.412       .  A
C1165      H1174   1.078       .  S
C1165      C1166   1.394       .  A
C1166      H1175   1.083       .  S
C1166      C1167   1.403       .  A
C1167      C1168   1.401       .  A
C1168      H1176   1.085   1_556  S
C1177      C1178   1.407       .  A
C1177      C1182   1.403       .  A
C1178      H1191   1.083       .  S
C1178      C1179   1.394       .  A
C1179      H1192   1.077       .  S
C1179      C1180   1.411       .  A
C1180      C1186   1.433       .  A
C1180      C1181   1.425       .  A
C1181      C1183   1.400       .  A
C1181      C1182   1.413       .  A
C1182      H1193   1.084       .  S
C1183      H1194   1.084       .  S
C1183      C1184   1.393       .  A
C1184      H1195   1.084       .  S
C1184      C1185   1.400       .  A
C1185      C1186   1.422       .  A
C1185      C1190   1.407       .  A
C1186      C1187   1.418       .  A
C1187      H1196   1.077       .  S
C1187      C1188   1.398       .  A
C1188      H1197   1.083       .  S
C1188      C1189   1.398       .  A
C1189      C1190   1.401       .  A
C1190      H1198   1.085       .  S
C1199      C1200   1.405       .  A
C1199      C1204   1.403       .  A
C1200      H1213   1.083       .  S
C1200      C1201   1.396       .  A
C1201      H1214   1.077       .  S
C1201      C1202   1.412       .  A
C1202      C1208   1.433       .  A
C1202      C1203   1.424       .  A
C1203      C1205   1.400       .  A
C1203      C1204   1.412       .  A
C1204      H1215   1.084       .  S
C1205      H1216   1.084       .  S
C1205      C1206   1.392       .  A
C1206      H1217   1.084       .  S
C1206      C1207   1.400       .  A
C1207      C1208   1.423       .  A
C1207      C1212   1.409       .  A
C1208      C1209   1.417       .  A
C1209      H1218   1.078       .  S
C1209      C1210   1.399       .  A
C1210      H1219   1.084       .  S
C1210      C1211   1.399       .  A
C1211      C1212   1.401       .  A
C1212      H1220   1.085       .  S
C1221      C1222   1.399   1_554  A
C1221      C1226   1.399   1_565  A
C1222      H1235   1.084       .  S
C1222      C1223   1.395       .  A
C1223      H1236   1.078       .  S
C1223      C1224   1.414       .  A
C1224      C1230   1.426       .  A
C1224      C1225   1.422   1_566  A
C1225      C1227   1.398       .  A
C1225      C1226   1.400       .  A
C1226      H1237   1.085       .  S
C1227      H1238   1.084       .  S
C1227      C1228   1.387       .  A
C1228      H1239   1.084       .  S
C1228      C1229   1.399       .  A
C1229      C1230   1.421   1_544  A
C1229      C1234   1.399       .  A
C1230      C1231   1.415       .  A
C1231      H1240   1.078       .  S
C1231      C1232   1.396       .  A
C1232      H1241   1.083       .  S
C1232      C1233   1.400   1_565  A
C1233      C1234   1.403   1_556  A
C1234      H1242   1.085       .  S
C1243      C1244   1.398   1_545  A
C1243      C1248   1.400   1_556  A
C1244      H1257   1.084       .  S
C1244      C1245   1.390       .  A
C1245      H1258   1.077       .  S
C1245      C1246   1.413   1_565  A
C1246      C1252   1.423   1_546  A
C1246      C1247   1.422   1_556  A
C1247      C1249   1.400       .  A
C1247      C1248   1.404       .  A
C1248      H1259   1.085       .  S
C1249      H1260   1.084       .  S
C1249      C1250   1.390       .  A
C1250      H1261   1.084       .  S
C1250      C1251   1.400       .  A
C1251      C1252   1.421   1_545  A
C1251      C1256   1.403       .  A
C1252      C1253   1.413   1_554  A
C1253      H1262   1.077       .  S
C1253      C1254   1.390       .  A
C1254      H1263   1.084       .  S
C1254      C1255   1.400   1_556  A
C1255      C1256   1.401   1_565  A
C1256      H1264   1.085       .  S
C1265      C1266   1.405       .  A
C1265      C1270   1.407       .  A
C1266      H1279   1.083       .  S
C1266      C1267   1.408       .  A
C1267      H1280   1.078       .  S
C1267      C1268   1.418       .  A
C1268      C1274   1.443       .  A
C1268      C1269   1.423       .  A
C1269      C1271   1.401       .  A
C1269      C1270   1.413       .  A
C1270      H1281   1.084       .  S
C1271      H1282   1.084       .  S
C1271      C1272   1.393       .  A
C1272      H1283   1.084       .  S
C1272      C1273   1.400       .  A
C1273      C1274   1.424       .  A
C1273      C1278   1.413       .  A
C1274      C1275   1.418       .  A
C1275      H1284   1.078       .  S
C1275      C1276   1.407       .  A
C1276      H1285   1.083       .  S
C1276      C1277   1.404       .  A
C1277      C1278   1.405       .  A
C1278      H1286   1.084       .  S
C1287      C1288   1.400       .  A
C1287      C1292   1.403       .  A
C1288      H1301   1.083       .  S
C1288      C1289   1.399       .  A
C1289      H1302   1.077       .  S
C1289      C1290   1.416       .  A
C1290      C1296   1.430       .  A
C1290      C1291   1.421       .  A
C1291      C1293   1.399       .  A
C1291      C1292   1.402       .  A
C1292      H1303   1.085       .  S
C1293      H1304   1.084       .  S
C1293      C1294   1.388       .  A
C1294      H1305   1.084       .  S
C1294      C1295   1.398       .  A
C1295      C1296   1.424       .  A
C1295      C1300   1.403       .  A
C1296      C1297   1.416       .  A
C1297      H1306   1.078       .  S
C1297      C1298   1.398       .  A
C1298      H1307   1.083       .  S
C1298      C1299   1.398       .  A
C1299      C1300   1.398       .  A
C1300      H1308   1.085       .  S
C1309      C1310   1.399       .  A
C1309      C1314   1.403       .  A
C1310      H1323   1.083       .  S
C1310      C1311   1.396       .  A
C1311      H1324   1.077       .  S
C1311      C1312   1.416       .  A
C1312      C1318   1.433       .  A
C1312      C1313   1.423       .  A
C1313      C1315   1.401       .  A
C1313      C1314   1.410       .  A
C1314      H1325   1.085       .  S
C1315      H1326   1.084       .  S
C1315      C1316   1.394       .  A
C1316      H1327   1.084       .  S
C1316      C1317   1.401       .  A
C1317      C1318   1.424       .  A
C1317      C1322   1.413       .  A
C1318      C1319   1.414       .  A
C1319      H1328   1.077       .  S
C1319      C1320   1.395       .  A
C1320      H1329   1.084       .  S
C1320      C1321   1.400       .  A
C1321      C1322   1.403       .  A
C1322      H1330   1.085       .  S
C1331      C1332   1.401       .  A
C1331      C1336   1.398       .  A
C1332      H1345   1.083       .  S
C1332      C1333   1.401       .  A
C1333      H1346   1.078       .  S
C1333      C1334   1.417       .  A
C1334      C1340   1.433       .  A
C1334      C1335   1.423       .  A
C1335      C1337   1.398       .  A
C1335      C1336   1.402       .  A
C1336      H1347   1.085       .  S
C1337      H1348   1.084       .  S
C1337      C1338   1.387       .  A
C1338      H1349   1.084       .  S
C1338      C1339   1.399       .  A
C1339      C1340   1.422       .  A
C1339      C1344   1.402       .  A
C1340      C1341   1.417       .  A
C1341      H1350   1.078       .  S
C1341      C1342   1.402       .  A
C1342      H1351   1.083       .  S
C1342      C1343   1.402       .  A
C1343      C1344   1.402       .  A
C1344      H1352   1.085       .  S
C1353      C1354   1.399       .  A
C1353      C1358   1.401       .  A
C1354      H1367   1.084       .  S
C1354      C1355   1.393       .  A
C1355      H1368   1.077       .  S
C1355      C1356   1.413       .  A
C1356      C1362   1.429       .  A
C1356      C1357   1.424       .  A
C1357      C1359   1.400       .  A
C1357      C1358   1.409       .  A
C1358      H1369   1.085       .  S
C1359      H1370   1.084       .  S
C1359      C1360   1.392       .  A
C1360      H1371   1.084       .  S
C1360      C1361   1.402       .  A
C1361      C1362   1.421       .  A
C1361      C1366   1.406       .  A
C1362      C1363   1.416       .  A
C1363      H1372   1.077       .  S
C1363      C1364   1.396   1_545  A
C1364      H1373   1.083       .  S
C1364      C1365   1.398       .  A
C1365      C1366   1.405   1_565  A
C1366      H1374   1.085       .  S
C1375      C1376   1.397       .  A
C1375      C1380   1.400       .  A
C1376      H1389   1.084       .  S
C1376      C1377   1.393       .  A
C1377      H1390   1.077       .  S
C1377      C1378   1.415       .  A
C1378      C1384   1.426       .  A
C1378      C1379   1.422       .  A
C1379      C1381   1.400       .  A
C1379      C1380   1.404       .  A
C1380      H1391   1.084       .  S
C1381      H1392   1.084       .  S
C1381      C1382   1.391       .  A
C1382      H1393   1.083       .  S
C1382      C1383   1.399       .  A
C1383      C1384   1.422       .  A
C1383      C1388   1.406       .  A
C1384      C1385   1.413       .  A
C1385      H1394   1.077       .  S
C1385      C1386   1.392       .  A
C1386      H1395   1.084       .  S
C1386      C1387   1.400       .  A
C1387      C1388   1.400       .  A
C1388      H1396   1.084       .  S
C1397      C1398   1.401       .  A
C1397      C1402   1.398       .  A
C1398      H1411   1.083       .  S
C1398      C1399   1.400       .  A
C1399      H1412   1.078       .  S
C1399      C1400   1.416       .  A
C1400      C1406   1.433       .  A
C1400      C1401   1.424       .  A
C1401      C1403   1.398       .  A
C1401      C1402   1.403       .  A
C1402      H1413   1.085   1_565  S
C1403      H1414   1.084   1_565  S
C1403      C1404   1.387       .  A
C1404      H1415   1.084       .  S
C1404      C1405   1.399       .  A
C1405      C1406   1.422       .  A
C1405      C1410   1.403       .  A
C1406      C1407   1.417       .  A
C1407      H1416   1.078       .  S
C1407      C1408   1.402       .  A
C1408      H1417   1.083       .  S
C1408      C1409   1.402       .  A
C1409      C1410   1.402       .  A
C1410      H1418   1.085       .  S
C1419      C1420   1.407       .  A
C1419      C1424   1.405       .  A
C1420      H1433   1.084       .  S
C1420      C1421   1.392       .  A
C1421      H1434   1.078       .  S
C1421      C1422   1.409       .  A
C1422      C1428   1.431       .  A
C1422      C1423   1.424       .  A
C1423      C1425   1.401       .  A
C1423      C1424   1.416       .  A
C1424      H1435   1.084       .  S
C1425      H1436   1.084       .  S
C1425      C1426   1.395       .  A
C1426      H1437   1.084       .  S
C1426      C1427   1.402       .  A
C1427      C1428   1.421       .  A
C1427      C1432   1.409       .  A
C1428      C1429   1.417       .  A
C1429      H1438   1.078       .  S
C1429      C1430   1.397       .  A
C1430      H1439   1.083       .  S
C1430      C1431   1.397       .  A
C1431      C1432   1.403       .  A
C1432      H1440   1.084       .  S
C1441      C1442   1.400       .  A
C1441      C1446   1.398       .  A
C1442      H1455   1.083       .  S
C1442      C1443   1.400       .  A
C1443      H1456   1.078       .  S
C1443      C1444   1.416       .  A
C1444      C1450   1.432       .  A
C1444      C1445   1.424       .  A
C1445      C1447   1.398       .  A
C1445      C1446   1.402       .  A
C1446      H1457   1.085       .  S
C1447      H1458   1.084       .  S
C1447      C1448   1.387       .  A
C1448      H1459   1.084       .  S
C1448      C1449   1.399       .  A
C1449      C1450   1.422       .  A
C1449      C1454   1.401       .  A
C1450      C1451   1.418       .  A
C1451      H1460   1.078       .  S
C1451      C1452   1.402       .  A
C1452      H1461   1.083       .  S
C1452      C1453   1.401       .  A
C1453      C1454   1.402       .  A
C1454      H1462   1.085       .  S
C1463      C1464   1.401       .  A
C1463      C1468   1.402       .  A
C1464      H1477   1.084   1_545  S
C1464      C1465   1.393       .  A
C1465      H1478   1.077       .  S
C1465      C1466   1.412       .  A
C1466      C1472   1.429       .  A
C1466      C1467   1.424       .  A
C1467      C1469   1.400       .  A
C1467      C1468   1.411       .  A
C1468      H1479   1.084       .  S
C1469      H1480   1.084       .  S
C1469      C1470   1.393       .  A
C1470      H1481   1.084       .  S
C1470      C1471   1.401       .  A
C1471      C1472   1.421       .  A
C1471      C1476   1.406       .  A
C1472      C1473   1.417       .  A
C1473      H1482   1.077       .  S
C1473      C1474   1.396       .  A
C1474      H1483   1.084       .  S
C1474      C1475   1.396       .  A
C1475      C1476   1.402       .  A
C1476      H1484   1.085       .  S
C1485      C1486   1.403       .  A
C1485      C1490   1.401       .  A
C1486      H1499   1.084       .  S
C1486      C1487   1.398   1_455  A
C1487      H1500   1.078       .  S
C1487      C1488   1.414       .  A
C1488      C1494   1.431       .  A
C1488      C1489   1.423       .  A
C1489      C1491   1.399       .  A
C1489      C1490   1.406   1_655  A
C1490      H1501   1.085       .  S
C1491      H1502   1.084   1_655  S
C1491      C1492   1.390       .  A
C1492      H1503   1.084       .  S
C1492      C1493   1.400       .  A
C1493      C1494   1.422       .  A
C1493      C1498   1.404       .  A
C1494      C1495   1.418       .  A
C1495      H1504   1.078       .  S
C1495      C1496   1.400       .  A
C1496      H1505   1.083       .  S
C1496      C1497   1.397       .  A
C1497      C1498   1.399       .  A
C1498      H1506   1.085       .  S
C1507      C1508   1.401       .  A
C1507      C1512   1.404       .  A
C1508      H1521   1.083       .  S
C1508      C1509   1.400       .  A
C1509      H1522   1.077       .  S
C1509      C1510   1.417       .  A
C1510      C1516   1.432       .  A
C1510      C1511   1.422       .  A
C1511      C1513   1.399       .  A
C1511      C1512   1.403       .  A
C1512      H1523   1.085       .  S
C1513      H1524   1.084       .  S
C1513      C1514   1.388       .  A
C1514      H1525   1.084   1_455  S
C1514      C1515   1.398       .  A
C1515      C1516   1.424       .  A
C1515      C1520   1.404       .  A
C1516      C1517   1.416       .  A
C1517      H1526   1.077       .  S
C1517      C1518   1.399       .  A
C1518      H1527   1.083       .  S
C1518      C1519   1.400       .  A
C1519      C1520   1.398       .  A
C1520      H1528   1.085       .  S
C1529      C1530   1.400       .  A
C1529      C1534   1.401       .  A
C1530      H1543   1.083       .  S
C1530      C1531   1.403       .  A
C1531      H1544   1.078       .  S
C1531      C1532   1.417       .  A
C1532      C1538   1.437       .  A
C1532      C1533   1.424       .  A
C1533      C1535   1.400       .  A
C1533      C1534   1.409       .  A
C1534      H1545   1.085       .  S
C1535      H1546   1.084       .  S
C1535      C1536   1.391       .  A
C1536      H1547   1.084       .  S
C1536      C1537   1.400       .  A
C1537      C1538   1.422       .  A
C1537      C1542   1.409       .  A
C1538      C1539   1.417       .  A
C1539      H1548   1.078       .  S
C1539      C1540   1.404       .  A
C1540      H1549   1.083       .  S
C1540      C1541   1.402       .  A
C1541      C1542   1.405       .  A
C1542      H1550   1.085       .  S
C1551      C1552   1.402       .  A
C1551      C1556   1.397       .  A
C1552      H1565   1.083       .  S
C1552      C1553   1.402       .  A
C1553      H1566   1.078       .  S
C1553      C1554   1.416       .  A
C1554      C1560   1.437       .  A
C1554      C1555   1.426       .  A
C1555      C1557   1.397       .  A
C1555      C1556   1.405       .  A
C1556      H1567   1.085       .  S
C1557      H1568   1.084       .  S
C1557      C1558   1.387       .  A
C1558      H1569   1.084       .  S
C1558      C1559   1.400       .  A
C1559      C1560   1.420       .  A
C1559      C1564   1.401   1_655  A
C1560      C1561   1.420   1_655  A
C1561      H1570   1.078       .  S
C1561      C1562   1.408       .  A
C1562      H1571   1.083       .  S
C1562      C1563   1.403       .  A
C1563      C1564   1.407       .  A
C1564      H1572   1.085       .  S
C1573      C1574   1.399       .  A
C1573      C1578   1.397       .  A
C1574      H1587   1.083       .  S
C1574      C1575   1.400       .  A
C1575      H1588   1.077       .  S
C1575      C1576   1.416       .  A
C1576      C1582   1.435       .  A
C1576      C1577   1.425       .  A
C1577      C1579   1.398       .  A
C1577      C1578   1.406       .  A
C1578      H1589   1.085       .  S
C1579      H1590   1.084       .  S
C1579      C1580   1.389       .  A
C1580      H1591   1.084       .  S
C1580      C1581   1.400       .  A
C1581      C1582   1.420       .  A
C1581      C1586   1.403       .  A
C1582      C1583   1.419       .  A
C1583      H1592   1.078       .  S
C1583      C1584   1.404       .  A
C1584      H1593   1.083       .  S
C1584      C1585   1.401       .  A
C1585      C1586   1.406       .  A
C1586      H1594   1.085       .  S
C1595      C1596   1.399       .  A
C1595      C1600   1.403       .  A
C1596      H1609   1.084       .  S
C1596      C1597   1.399       .  A
C1597      H1610   1.077       .  S
C1597      C1598   1.416       .  A
C1598      C1604   1.436       .  A
C1598      C1599   1.423       .  A
C1599      C1601   1.401       .  A
C1599      C1600   1.413       .  A
C1600      H1611   1.084       .  S
C1601      H1612   1.084       .  S
C1601      C1602   1.394       .  A
C1602      H1613   1.084       .  S
C1602      C1603   1.401       .  A
C1603      C1604   1.424       .  A
C1603      C1608   1.415       .  A
C1604      C1605   1.414       .  A
C1605      H1614   1.077       .  S
C1605      C1606   1.398       .  A
C1606      H1615   1.083       .  S
C1606      C1607   1.405       .  A
C1607      C1608   1.406       .  A
C1608      H1616   1.084       .  S
C1617      C1618   1.403       .  A
C1617      C1622   1.405       .  A
C1618      H1631   1.084       .  S
C1618      C1619   1.387   1_565  A
C1619      H1632   1.077       .  S
C1619      C1620   1.409       .  A
C1620      C1626   1.426       .  A
C1620      C1621   1.423   1_545  A
C1621      C1623   1.401   1_565  A
C1621      C1622   1.412       .  A
C1622      H1633   1.084       .  S
C1623      H1634   1.084   1_545  S
C1623      C1624   1.395       .  A
C1624      H1635   1.084       .  S
C1624      C1625   1.401       .  A
C1625      C1626   1.422       .  A
C1625      C1630   1.408       .  A
C1626      C1627   1.415       .  A
C1627      H1636   1.077       .  S
C1627      C1628   1.390       .  A
C1628      H1637   1.084       .  S
C1628      C1629   1.395       .  A
C1629      C1630   1.401       .  A
C1630      H1638   1.084       .  S
C1639      C1640   1.395       .  A
C1639      C1644   1.401       .  A
C1640      H1653   1.083       .  S
C1640      C1641   1.394       .  A
C1641      H1654   1.077       .  S
C1641      C1642   1.416       .  A
C1642      C1648   1.428       .  A
C1642      C1643   1.422       .  A
C1643      C1645   1.401       .  A
C1643      C1644   1.408       .  A
C1644      H1655   1.085       .  S
C1645      H1656   1.084       .  S
C1645      C1646   1.394       .  A
C1646      H1657   1.084       .  S
C1646      C1647   1.401       .  A
C1647      C1648   1.423       .  A
C1647      C1652   1.412       .  A
C1648      C1649   1.411       .  A
C1649      H1658   1.077       .  S
C1649      C1650   1.391       .  A
C1650      H1659   1.084       .  S
C1650      C1651   1.403       .  A
C1651      C1652   1.404       .  A
C1652      H1660   1.084       .  S
C1661      C1662   1.402       .  A
C1661      C1666   1.402       .  A
C1662      H1675   1.083       .  S
C1662      C1663   1.401       .  A
C1663      H1676   1.078       .  S
C1663      C1664   1.416       .  A
C1664      C1670   1.432       .  A
C1664      C1665   1.422       .  A
C1665      C1667   1.399       .  A
C1665      C1666   1.402       .  A
C1666      H1677   1.085       .  S
C1667      H1678   1.084       .  S
C1667      C1668   1.387       .  A
C1668      H1679   1.084       .  S
C1668      C1669   1.398       .  A
C1669      C1670   1.423       .  A
C1669      C1674   1.402       .  A
C1670      C1671   1.417       .  A
C1671      H1680   1.078       .  S
C1671      C1672   1.401       .  A
C1672      H1681   1.083       .  S
C1672      C1673   1.399       .  A
C1673      C1674   1.397       .  A
C1674      H1682   1.085       .  S
C1683      C1684   1.399       .  A
C1683      C1688   1.396       .  A
C1684      H1697   1.083       .  S
C1684      C1685   1.401       .  A
C1685      H1698   1.078       .  S
C1685      C1686   1.417       .  A
C1686      C1692   1.433       .  A
C1686      C1687   1.424       .  A
C1687      C1689   1.397       .  A
C1687      C1688   1.402       .  A
C1688      H1699   1.085       .  S
C1689      H1700   1.084       .  S
C1689      C1690   1.387       .  A
C1690      H1701   1.084       .  S
C1690      C1691   1.399       .  A
C1691      C1692   1.421       .  A
C1691      C1696   1.401   1_545  A
C1692      C1693   1.418       .  A
C1693      H1702   1.078       .  S
C1693      C1694   1.403   1_545  A
C1694      H1703   1.083       .  S
C1694      C1695   1.402       .  A
C1695      C1696   1.403       .  A
C1696      H1704   1.084       .  S
C1705      C1706   1.402       .  A
C1705      C1710   1.399       .  A
C1706      H1719   1.084       .  S
C1706      C1707   1.394       .  A
C1707      H1720   1.078       .  S
C1707      C1708   1.413       .  A
C1708      C1714   1.426       .  A
C1708      C1709   1.423       .  A
C1709      C1711   1.399       .  A
C1709      C1710   1.402       .  A
C1710      H1721   1.084       .  S
C1711      H1722   1.084       .  S
C1711      C1712   1.388       .  A
C1712      H1723   1.084       .  S
C1712      C1713   1.398       .  A
C1713      C1714   1.421       .  A
C1713      C1718   1.399       .  A
C1714      C1715   1.416       .  A
C1715      H1724   1.078       .  S
C1715      C1716   1.397       .  A
C1716      H1725   1.084       .  S
C1716      C1717   1.397       .  A
C1717      C1718   1.397       .  A
C1718      H1726   1.085       .  S
C1727      C1728   1.399       .  A
C1727      C1732   1.397       .  A
C1728      H1741   1.084       .  S
C1728      C1729   1.393       .  A
C1729      H1742   1.077       .  S
C1729      C1730   1.413       .  A
C1730      C1736   1.427       .  A
C1730      C1731   1.424       .  A
C1731      C1733   1.398       .  A
C1731      C1732   1.404       .  A
C1732      H1743   1.085       .  S
C1733      H1744   1.084       .  S
C1733      C1734   1.388       .  A
C1734      H1745   1.084       .  S
C1734      C1735   1.399       .  A
C1735      C1736   1.422       .  A
C1735      C1740   1.401       .  A
C1736      C1737   1.416       .  A
C1737      H1746   1.077       .  S
C1737      C1738   1.395   1_655  A
C1738      H1747   1.084       .  S
C1738      C1739   1.400       .  A
C1739      C1740   1.400   1_455  A
C1740      H1748   1.085       .  S
C1749      C1750   1.399       .  A
C1749      C1754   1.398       .  A
C1750      H1763   1.083       .  S
C1750      C1751   1.401       .  A
C1751      H1764   1.078       .  S
C1751      C1752   1.417       .  A
C1752      C1758   1.435       .  A
C1752      C1753   1.424       .  A
C1753      C1755   1.399       .  A
C1753      C1754   1.406       .  A
C1754      H1765   1.085   1_455  S
C1755      H1766   1.084   1_455  S
C1755      C1756   1.389       .  A
C1756      H1767   1.084   1_455  S
C1756      C1757   1.400       .  A
C1757      C1758   1.422       .  A
C1757      C1762   1.405       .  A
C1758      C1759   1.417       .  A
C1759      H1768   1.078       .  S
C1759      C1760   1.402       .  A
C1760      H1769   1.083       .  S
C1760      C1761   1.403       .  A
C1761      C1762   1.405       .  A
C1762      H1770   1.084       .  S
C1771      C1772   1.400       .  A
C1771      C1776   1.403       .  A
C1772      H1785   1.084       .  S
C1772      C1773   1.393       .  A
C1773      H1786   1.077       .  S
C1773      C1774   1.413       .  A
C1774      C1780   1.430       .  A
C1774      C1775   1.424       .  A
C1775      C1777   1.401       .  A
C1775      C1776   1.411       .  A
C1776      H1787   1.085       .  S
C1777      H1788   1.084       .  S
C1777      C1778   1.393       .  A
C1778      H1789   1.084       .  S
C1778      C1779   1.400       .  A
C1779      C1780   1.423       .  A
C1779      C1784   1.408       .  A
C1780      C1781   1.415       .  A
C1781      H1790   1.077       .  S
C1781      C1782   1.393       .  A
C1782      H1791   1.083       .  S
C1782      C1783   1.398       .  A
C1783      C1784   1.401       .  A
C1784      H1792   1.085       .  S
C1793      C1794   1.401       .  A
C1793      C1798   1.402       .  A
C1794      H1807   1.083       .  S
C1794      C1795   1.402       .  A
C1795      H1808   1.078       .  S
C1795      C1796   1.417       .  A
C1796      C1802   1.438       .  A
C1796      C1797   1.423       .  A
C1797      C1799   1.400       .  A
C1797      C1798   1.411       .  A
C1798      H1809   1.085       .  S
C1799      H1810   1.084   1_655  S
C1799      C1800   1.393   1_655  A
C1800      H1811   1.084       .  S
C1800      C1801   1.400       .  A
C1801      C1802   1.425   1_455  A
C1801      C1806   1.414       .  A
C1802      C1803   1.415       .  A
C1803      H1812   1.078       .  S
C1803      C1804   1.400   1_655  A
C1804      H1813   1.084   1_455  S
C1804      C1805   1.403       .  A
C1805      C1806   1.404       .  A
C1806      H1814   1.085       .  S
C1815      C1816   1.403       .  A
C1815      C1820   1.406       .  A
C1816      H1829   1.083       .  S
C1816      C1817   1.406       .  A
C1817      H1830   1.078       .  S
C1817      C1818   1.418       .  A
C1818      C1824   1.438       .  A
C1818      C1819   1.422       .  A
C1819      C1821   1.400       .  A
C1819      C1820   1.406       .  A
C1820      H1831   1.084       .  S
C1821      H1832   1.084       .  S
C1821      C1822   1.389       .  A
C1822      H1833   1.084       .  S
C1822      C1823   1.398       .  A
C1823      C1824   1.425       .  A
C1823      C1828   1.407       .  A
C1824      C1825   1.417       .  A
C1825      H1834   1.078       .  S
C1825      C1826   1.403       .  A
C1826      H1835   1.083       .  S
C1826      C1827   1.400       .  A
C1827      C1828   1.398       .  A
C1828      H1836   1.085       .  S
