geometry optimzed in LAMMPS
_audit_creation_date              2020-11-30 
_audit_creation_method            'lammps2cif' 
_symmetry_space_group_name_H-M    'P1' 
_symmetry_Int_Tables_number       1 
_symmetry_cell_setting            triclinic 
loop_ 
_symmetry_equiv_pos_as_xyz 
  x,y,z 
_cell_length_a                    27.47224225136094 
_cell_length_b                    27.45408321398201 
_cell_length_c                    27.429124382989855 
_cell_angle_alpha                 90.77048058721019 
_cell_angle_beta                  89.8328358891506 
_cell_angle_gamma                 90.29307022667852 
loop_ 
_atom_site_label 
_atom_site_type_symbol 
_atom_site_fract_x 
_atom_site_fract_y 
_atom_site_fract_z 
_atom_site_charge 
C1          C  0.79507776  0.52174160  0.72456153     0.02000
C2          C  0.75224599  0.54601288  0.74401669     0.02000
C3          C  0.73922329  0.52401017  0.78978823     0.02000
C4          C  0.74680068  0.47203092  0.79458106     0.02000
C5          C  0.75661031  0.44492220  0.75074622     0.02000
C6          C  0.79817312  0.46780792  0.72863781     0.02000
C7          C  0.72472366  0.32977174  0.66722751     0.02840
C8          C  0.74885531  0.36919886  0.69198943    -0.13310
C9          C  0.72779539  0.39765405  0.73031980     0.00340
C10         C  0.67866513  0.38224247  0.74440473    -0.11840
C11         C  0.65574986  0.33666320  0.72971087     0.02830
C12         C  0.67911287  0.31329230  0.68824244    -0.11260
H13         H  0.78467563  0.37877846  0.68048508     0.08430
H14         H  0.65550799  0.40706099  0.76320220     0.05960
H15         H  0.66113741  0.28218771  0.67177526     0.05800
C16         C  0.58700939  0.26744739  0.74056612     0.02000
C17         C  0.60730372  0.31347942  0.75502687     0.02000
C18         C  0.57799078  0.33027898  0.79680059     0.02000
C19         C  0.52481041  0.32287291  0.79537221     0.02000
C20         C  0.50555463  0.30990956  0.74897852     0.02000
C21         C  0.53334322  0.26924763  0.73016364     0.02000
C22         C  0.33331085  0.52390728  0.72032633     0.02000
C23         C  0.37610059  0.54954835  0.73851642     0.02000
C24         C  0.39066340  0.52973841  0.78340399     0.02000
C25         C  0.38910063  0.47665640  0.78910521     0.02000
C26         C  0.36882304  0.44741044  0.74980480     0.02000
C27         C  0.32744624  0.47154942  0.72924787     0.02000
C28         C  0.39363829  0.33432308  0.65986477     0.02840
C29         C  0.43502687  0.31285476  0.68315209    -0.13310
C30         C  0.45767853  0.33278001  0.72616280     0.00340
C31         C  0.43662725  0.37753977  0.74500166    -0.11840
C32         C  0.39344175  0.40018684  0.72588096     0.02830
C33         C  0.37617365  0.37952248  0.68055317    -0.11260
H34         H  0.45049121  0.28072796  0.66661592     0.08430
H35         H  0.45493542  0.39511662  0.77480477     0.05960
H36         H  0.34706367  0.39786307  0.66179655     0.05800
C37         C  0.53913922  0.66863859  0.79094827     0.02000
C38         C  0.59151701  0.66008124  0.78653591     0.02000
C39         C  0.61862684  0.68655453  0.75063098     0.02000
C40         C  0.59474823  0.73290624  0.73827890     0.02000
C41         C  0.54023573  0.73131566  0.73502191     0.02000
C42         C  0.51476496  0.68734540  0.74839825     0.02000
C43         C  0.39985687  0.66419321  0.65501272     0.02840
C44         C  0.37971754  0.62166930  0.67669038    -0.13310
C45         C  0.39961784  0.59830157  0.71838480     0.00340
C46         C  0.44295482  0.62063882  0.73992648    -0.11840
C47         C  0.46629521  0.66432820  0.72226237     0.02830
C48         C  0.44489247  0.68218862  0.67712215    -0.11260
H49         H  0.34786132  0.60637180  0.66053232     0.08430
H50         H  0.45989610  0.60315733  0.77045512     0.05960
H51         H  0.46267578  0.71086817  0.65834475     0.05800
C52         C  0.58852590  0.73296014  0.39475689     0.02000
C53         C  0.61418116  0.68786513  0.37886125     0.02000
C54         C  0.59160515  0.66796072  0.33465169     0.02000
C55         C  0.53839899  0.66809926  0.33153533     0.02000
C56         C  0.51177168  0.69085071  0.37022448     0.02000
C57         C  0.53555712  0.73657253  0.38235149     0.02000
C58         C  0.33095024  0.67184494  0.58217755     0.02000
C59         C  0.37386836  0.68951373  0.60948574     0.02000
C60         C  0.39039675  0.73476320  0.58880120     0.02000
C61         C  0.39770498  0.73277593  0.53483820     0.02000
C62         C  0.37485272  0.69406735  0.50826031     0.02000
C63         C  0.32834117  0.68469359  0.53044321     0.02000
C64         C  0.39550517  0.67189853  0.45856581     0.02840
C65         C  0.37315763  0.63029254  0.43488034    -0.13310
C66         C  0.39330171  0.60662959  0.39228439     0.00340
C67         C  0.43887317  0.62605973  0.37444825    -0.11840
C68         C  0.46243886  0.66935153  0.39330147     0.02830
C69         C  0.44042686  0.68952572  0.43683544    -0.11260
H70         H  0.34008635  0.61547790  0.45039376     0.08430
H71         H  0.45648167  0.60633821  0.34556874     0.05960
H72         H  0.45926207  0.71956742  0.45383972     0.05800
C73         C  0.32346330  0.53751601  0.38197507     0.02000
C74         C  0.36783725  0.56099415  0.36670225     0.02000
C75         C  0.38858611  0.53453224  0.32666482     0.02000
C76         C  0.39526589  0.48205570  0.33405600     0.02000
C77         C  0.37403337  0.45948613  0.37654877     0.02000
C78         C  0.32744042  0.48334956  0.38868926     0.02000
C79         C  0.52857894  0.33055269  0.32573922     0.02000
C80         C  0.58110298  0.33730815  0.33323985     0.02000
C81         C  0.60338009  0.31698684  0.37614049     0.02000
C82         C  0.57754533  0.27223875  0.39103388     0.02000
C83         C  0.52326591  0.26705639  0.38118424     0.02000
C84         C  0.50082559  0.31146527  0.36555098     0.02000
C85         C  0.39355456  0.34074535  0.46108039     0.02840
C86         C  0.43201836  0.31783476  0.43334060    -0.13310
C87         C  0.45634210  0.33877947  0.39224193     0.00340
C88         C  0.43804107  0.38559816  0.37744467    -0.11840
C89         C  0.39507441  0.40919968  0.39812289     0.02830
C90         C  0.37584366  0.38635353  0.44160266    -0.11260
H91         H  0.44328340  0.28243841  0.44301445     0.08430
H92         H  0.45804281  0.40360979  0.34905297     0.05960
H93         H  0.34782326  0.40518961  0.46157532     0.05800
C94         C  0.39031483  0.27067855  0.58681750     0.02000
C95         C  0.36938228  0.30980679  0.61352721     0.02000
C96         C  0.32560404  0.32441713  0.59023007     0.02000
C97         C  0.33049709  0.33390915  0.53695456     0.02000
C98         C  0.37335535  0.31769058  0.51087666     0.02000
C99         C  0.39219054  0.27432391  0.53361976     0.02000
C100        C  0.79495362  0.52372045  0.39450141     0.02000
C101        C  0.74886588  0.54633542  0.38005113     0.02000
C102        C  0.72918955  0.52170908  0.33750420     0.02000
C103        C  0.73955308  0.46847410  0.33107307     0.02000
C104        C  0.75476790  0.44417872  0.37402327     0.02000
C105        C  0.79818390  0.46959914  0.39109468     0.02000
C106        C  0.73287915  0.26582538  0.59326976     0.02000
C107        C  0.74561202  0.30973468  0.61722271     0.02000
C108        C  0.78495884  0.33046645  0.59097545     0.02000
C109        C  0.78228798  0.33077106  0.53717357     0.02000
C110        C  0.73904048  0.31257906  0.51443372     0.02000
C111        C  0.72096325  0.27037631  0.54104709     0.02000
C112        C  0.72537203  0.39943454  0.39865260     0.02840
C113        C  0.67963181  0.38016586  0.37969778    -0.13310
C114        C  0.65404676  0.33738876  0.39853888     0.00340
C115        C  0.67508026  0.31721983  0.44209070    -0.11840
C116        C  0.71925006  0.33439460  0.46458988     0.02830
C117        C  0.74179339  0.37650189  0.44224255    -0.11260
H118        H  0.66452968  0.39911769  0.34925138     0.08430
H119        H  0.65556165  0.28955058  0.46111714     0.05960
H120        H  0.77173519  0.39381046  0.45984393     0.05800
C121        C  0.73334026  0.72639989  0.54098368     0.02000
C122        C  0.73578299  0.72824807  0.59368874     0.02000
C123        C  0.75654888  0.68827659  0.61739260     0.02000
C124        C  0.80113856  0.67541741  0.59305000     0.02000
C125        C  0.79581083  0.66705816  0.53879128     0.02000
C126        C  0.75102372  0.68342705  0.51647557     0.02000
C127        C  0.72415477  0.59338029  0.40484915     0.02840
C128        C  0.67928719  0.61540850  0.38724662    -0.13310
C129        C  0.65955508  0.66136676  0.40488035     0.00340
C130        C  0.68272454  0.68026377  0.44834178    -0.11840
C131        C  0.72622466  0.66004463  0.46963071     0.02830
C132        C  0.74478365  0.61605344  0.44737625    -0.11260
H133        H  0.65988191  0.59759484  0.35796473     0.08430
H134        H  0.66698326  0.71195609  0.46514251     0.05960
H135        H  0.77609653  0.59898879  0.46334273     0.05800
C136        C  0.72884271  0.59424610  0.72263594     0.02840
C137        C  0.68602000  0.61637319  0.74280940    -0.13310
C138        C  0.66713687  0.66352074  0.72816357     0.00340
C139        C  0.69409946  0.68668668  0.69035462    -0.11840
C140        C  0.73145809  0.66301267  0.66231560     0.02830
C141        C  0.74467586  0.61538954  0.67789347    -0.11260
H142        H  0.66693190  0.59474520  0.76897333     0.08430
H143        H  0.68710709  0.72400740  0.68400913     0.05960
H144        H  0.76774465  0.59510494  0.65498043     0.05800
O145        O  0.12030257  0.70160418  0.69406235    -0.74720
O146        O  0.01387611  0.63076777  0.75452323    -0.74750
O147        O  0.11666405  0.62276640  0.74543569    -0.74800
O148        O  0.01767880  0.71234964  0.70412735    -0.74850
O149        O  0.00798398  0.66581899  0.63804282    -0.74780
O150        O  0.11170714  0.58318455  0.67440829    -0.74760
O151        O  0.01205046  0.58390653  0.68770960    -0.74740
O152        O  0.10372382  0.66331023  0.62450818    -0.74800
Ni153      Ni  0.06738373  0.66871345  0.72742034     1.25410
Ni154      Ni  0.05828334  0.62234332  0.65409538     1.25360
C155        C  0.13384646  0.68585443  0.65175582     0.87460
C156        C  0.99240140  0.59870226  0.72747323     0.87400
C157        C  0.13562728  0.59444146  0.71299451     0.87420
C158        C  0.99387555  0.70068965  0.66553644     0.87590
O159        O  0.72510406  0.05633992  0.64300412    -0.74720
O160        O  0.64703301  0.96689678  0.71373428    -0.74750
O161        O  0.65843323  0.06413215  0.71228801    -0.74800
O162        O  0.71081873  0.95630184  0.64212839    -0.74850
O163        O  0.77051804  0.94863614  0.69601257    -0.74780
O164        O  0.71290618  0.05590553  0.77160624    -0.74760
O165        O  0.70565031  0.95212696  0.76609427    -0.74740
O166        O  0.78069798  0.05247759  0.70182825    -0.74800
Ni167      Ni  0.68372499  0.01116177  0.67581448     1.25410
Ni168      Ni  0.74498207  0.00235220  0.73605115     1.25360
C169        C  0.76260703  0.07385062  0.66470263     0.87460
C170        C  0.66611888  0.93883719  0.74498115     0.87400
C171        C  0.67705283  0.07891900  0.75232885     0.87420
C172        C  0.74467675  0.93080405  0.66074333     0.87590
O173        O  0.69012265  0.53958096  0.01719525    -0.74720
O174        O  0.61541857  0.61817091  0.10359063    -0.74750
O175        O  0.62326820  0.60716110  0.00641557    -0.74800
O176        O  0.68064752  0.54903415  0.11405209    -0.74850
O177        O  0.73935723  0.60409224  0.11847121    -0.74780
O178        O  0.68181348  0.66306250  0.00478352    -0.74760
O179        O  0.67498367  0.67235713  0.10869707    -0.74740
O180        O  0.74762823  0.59611820  0.01461876    -0.74800
Ni181      Ni  0.65048364  0.57669956  0.06037505     1.25410
Ni182      Ni  0.71342607  0.63636770  0.06160024     1.25360
C183        C  0.72483148  0.56025805  0.99440084     0.87460
C184        C  0.63787513  0.65122715  0.12774210     0.87400
C185        C  0.64764533  0.63876878  0.98325387     0.87420
C186        C  0.71376535  0.57028799  0.13836272     0.87590
O187        O  0.36938010  0.05614336  0.68490055    -0.74720
O188        O  0.43193081  0.94666433  0.74268874    -0.74750
O189        O  0.44317988  0.04898306  0.74341218    -0.74800
O190        O  0.35516793  0.95534862  0.68858660    -0.74850
O191        O  0.40479480  0.94617226  0.62463780    -0.74780
O192        O  0.48792177  0.04601914  0.67611018    -0.74760
O193        O  0.48333266  0.94768047  0.68017284    -0.74740
O194        O  0.41221454  0.04238323  0.61734682    -0.74800
Ni195      Ni  0.39793093  0.00208398  0.71767933     1.25410
Ni196      Ni  0.44891288  0.99515650  0.64735758     1.25360
C197        C  0.38847810  0.07087249  0.64476904     0.87460
C198        C  0.46372649  0.92555633  0.71532729     0.87400
C199        C  0.47348838  0.06911870  0.71441343     0.87420
C200        C  0.36942394  0.93135946  0.65108880     0.87590
O201        O  0.10896796  0.31193634  0.61699895    -0.74720
O202        O  0.01828505  0.39960632  0.67387330    -0.74750
O203        O  0.11468532  0.38923871  0.67337829    -0.74800
O204        O  0.01188781  0.32368752  0.61522254    -0.74850
O205        O  0.00180674  0.28173164  0.68333344    -0.74780
O206        O  0.11556737  0.34587929  0.74040392    -0.74760
O207        O  0.01415230  0.35688832  0.74185410    -0.74740
O208        O  0.10574689  0.26728376  0.68400277    -0.74800
Ni209      Ni  0.06378206  0.35747027  0.64281427     1.25410
Ni210      Ni  0.05910264  0.31035057  0.71488168     1.25360
C211        C  0.12744289  0.28005936  0.64461937     0.87460
C212        C  0.99784860  0.39069682  0.71479470     0.87400
C213        C  0.13477638  0.37834687  0.71295829     0.87420
C214        C  0.98455563  0.30056984  0.64403073     0.87590
O215        O  0.43458724  0.68518926  0.11380802    -0.74720
O216        O  0.36627371  0.63290486  0.00046581    -0.74750
O217        O  0.35593658  0.63187382  0.10410399    -0.74800
O218        O  0.43779579  0.69491006  0.01226252    -0.74850
O219        O  0.48476932  0.62941293  0.00803883    -0.74780
O220        O  0.40749630  0.56972893  0.10871348    -0.74760
O221        O  0.40991425  0.56627225  0.00970785    -0.74740
O222        O  0.48637219  0.62366194  0.10643424    -0.74800
Ni223      Ni  0.39640972  0.66380961  0.05777588     1.25410
Ni224      Ni  0.44884423  0.59491457  0.05791728     1.25360
C225        C  0.46746090  0.65711830  0.13183107     0.87460
C226        C  0.38520583  0.59341231  0.98265082     0.87400
C227        C  0.37265639  0.59550761  0.12689915     0.87420
C228        C  0.47011114  0.66994533  0.99034872     0.87590
O229        O  0.74198933  0.44103897  0.11281318    -0.74720
O230        O  0.64885375  0.40030099  0.01510626    -0.74750
O231        O  0.65260226  0.40089068  0.11673573    -0.74800
O232        O  0.73867794  0.43998300  0.01256682    -0.74850
O233        O  0.77108781  0.36578896  0.01137831    -0.74780
O234        O  0.68600036  0.32769551  0.11691887    -0.74760
O235        O  0.68139454  0.32665065  0.01513147    -0.74740
O236        O  0.77430777  0.36701566  0.11367913    -0.74800
Ni237      Ni  0.69435706  0.42308866  0.06437892     1.25410
Ni238      Ni  0.72937904  0.34420019  0.06404729     1.25360
C239        C  0.76997126  0.40981238  0.13256509     0.87460
C240        C  0.65223617  0.35749443  0.99604904     0.87400
C241        C  0.65915559  0.35993066  0.13772387     0.87420
C242        C  0.76609392  0.40791781  0.99226435     0.87590
O243        O  0.75383275  0.04942688  0.46816319    -0.74720
O244        O  0.67371241  0.95551978  0.40161680    -0.74750
O245        O  0.68280116  0.05822977  0.40695746    -0.74800
O246        O  0.74334294  0.94791132  0.46573675    -0.74850
O247        O  0.68895658  0.95177433  0.52613834    -0.74780
O248        O  0.63058896  0.05895882  0.46862313    -0.74760
O249        O  0.61919654  0.96050804  0.46132462    -0.74740
O250        O  0.70251329  0.04698513  0.53029884    -0.74800
Ni251      Ni  0.71562130  0.00247823  0.43300107     1.25410
Ni252      Ni  0.65827094  0.00477567  0.49853697     1.25360
C253        C  0.73324506  0.07042360  0.50446229     0.87460
C254        C  0.63788527  0.93711342  0.42524099     0.87400
C255        C  0.65176380  0.08090369  0.43401373     0.87420
C256        C  0.72095760  0.92879108  0.50209360     0.87590
O257        O  0.12313102  0.67142785  0.48424257    -0.74720
O258        O  0.02665057  0.58578510  0.43090510    -0.74750
O259        O  0.12287896  0.60181727  0.41845290    -0.74800
O260        O  0.02541996  0.65568207  0.49715270    -0.74850
O261        O  0.00750078  0.70827221  0.43990950    -0.74780
O262        O  0.10802939  0.65191461  0.35717730    -0.74760
O263        O  0.00764356  0.63915722  0.37436566    -0.74740
O264        O  0.11056688  0.72357337  0.42412408    -0.74800
Ni265      Ni  0.07522862  0.62717082  0.45958151     1.25410
Ni266      Ni  0.05816618  0.68337007  0.39672701     1.25360
C267        C  0.13660759  0.70848951  0.45983748     0.87460
C268        C  0.99632916  0.60170838  0.39977343     0.87400
C269        C  0.13279950  0.61744976  0.37594735     0.87420
C270        C  0.99432156  0.68251411  0.47672859     0.87590
O271        O  0.10767374  0.30912328  0.47958237    -0.74720
O272        O  0.01720825  0.36170184  0.38893911    -0.74750
O273        O  0.11902692  0.36428040  0.40442908    -0.74800
O274        O  0.00606232  0.31010481  0.46785412    -0.74850
O275        O  0.00582290  0.37567609  0.51609400    -0.74780
O276        O  0.10944919  0.43217807  0.44828742    -0.74760
O277        O  0.01156435  0.42843837  0.43537652    -0.74740
O278        O  0.10447551  0.37732583  0.52340510    -0.74800
Ni279      Ni  0.06266187  0.33354394  0.43326203     1.25410
Ni280      Ni  0.05722704  0.40564678  0.48242168     1.25360
C281        C  0.12810314  0.33997262  0.50834579     0.87460
C282        C  0.99528029  0.40104620  0.40088574     0.87400
C283        C  0.13634359  0.40403070  0.42330299     0.87420
C284        C  0.98410227  0.33876311  0.49809253     0.87590
O285        O  0.44064445  0.05510461  0.45764391    -0.74720
O286        O  0.46949648  0.93988999  0.38717717    -0.74750
O287        O  0.47162610  0.03207127  0.36654906    -0.74800
O288        O  0.43437393  0.95590359  0.47422224    -0.74850
O289        O  0.36369237  0.94620958  0.43641067    -0.74780
O290        O  0.39747108  0.05064919  0.34730814    -0.74760
O291        O  0.39965151  0.94315217  0.34689881    -0.74740
O292        O  0.36313359  0.05077538  0.43579299    -0.74800
Ni293      Ni  0.45657540  0.99636572  0.42282519     1.25410
Ni294      Ni  0.37743043  0.99728528  0.39010824     1.25360
C295        C  0.39857504  0.07466058  0.45592120     0.87460
C296        C  0.44007204  0.92117696  0.35676153     0.87400
C297        C  0.44226229  0.06337476  0.35073427     0.87420
C298        C  0.39601607  0.93037786  0.46605303     0.87590
O299        O  0.37484203  0.39346748  0.11660997    -0.74720
O300        O  0.40621525  0.30848852  0.00881623    -0.74750
O301        O  0.41536756  0.30735972  0.11107455    -0.74800
O302        O  0.36912874  0.39608879  0.01375879    -0.74850
O303        O  0.44176197  0.43161774  0.01504134    -0.74780
O304        O  0.48885963  0.34150650  0.10515582    -0.74760
O305        O  0.48028792  0.34157849  0.00670557    -0.74740
O306        O  0.44709804  0.42889527  0.11041943    -0.74800
Ni307      Ni  0.38834102  0.35011126  0.06277821     1.25410
Ni308      Ni  0.46702050  0.38686174  0.05901619     1.25360
C309        C  0.40913510  0.41939957  0.13525403     0.87460
C310        C  0.44699304  0.31491416  0.98722395     0.87400
C311        C  0.45857289  0.31475242  0.12774419     0.87420
C312        C  0.40186987  0.42299935  0.99383937     0.87590
C313        C  0.68628078  0.79723177  0.51380727    -0.20590
C314        C  0.73153596  0.77459712  0.51535061    -0.07160
C315        C  0.77359912  0.80503855  0.50887595     0.13710
C316        C  0.76888272  0.85474592  0.50228714    -0.20650
C317        C  0.72469941  0.87684145  0.51062866    -0.07170
C318        C  0.68273949  0.84776617  0.51907270     0.13700
C319        C  0.63491108  0.86834573  0.53703234    -0.24000
H320        H  0.65352610  0.77549948  0.51509345     0.14980
H321        H  0.80082455  0.87703567  0.49513332     0.15010
C322        C  0.82447265  0.78859641  0.51219090    -0.23950
H323        H  0.60577400  0.84036076  0.53849388     0.05230
H324        H  0.62161175  0.89709155  0.51427647     0.08450
H325        H  0.63891373  0.88562979  0.57312786     0.08450
H326        H  0.84400971  0.79449472  0.47725273     0.08430
H327        H  0.82292369  0.75076103  0.52004619     0.08430
H328        H  0.84396195  0.80811253  0.54206930     0.05210
C329        C  0.87505132  0.62670509  0.52556723    -0.20590
C330        C  0.83992700  0.65638397  0.50590804    -0.07160
C331        C  0.85541555  0.68497043  0.46510952     0.13710
C332        C  0.90574771  0.69400505  0.45796092    -0.20650
C333        C  0.94129819  0.67391365  0.48841308    -0.07170
C334        C  0.92473574  0.63804208  0.52212644     0.13700
C335        C  0.95408470  0.61717090  0.56282947    -0.24000
H336        H  0.86332549  0.59852725  0.54936570     0.14980
H337        H  0.91729245  0.71680731  0.42811005     0.15010
C338        C  0.82133614  0.70429165  0.42696036    -0.23950
H339        H  0.94100703  0.63652438  0.59496631     0.05230
H340        H  0.99371724  0.62105172  0.56165517     0.08450
H341        H  0.94584544  0.57815199  0.56863298     0.08450
H342        H  0.84061645  0.72776243  0.40040883     0.08430
H343        H  0.79199941  0.72655671  0.44281911     0.08430
H344        H  0.80584331  0.67363458  0.40550818     0.05210
C345        C  0.88638156  0.71734390  0.58949531    -0.20590
C346        C  0.84976710  0.69421747  0.61796565    -0.07160
C347        C  0.85978158  0.69782603  0.66992504     0.13710
C348        C  0.90761404  0.70761796  0.68665551    -0.20650
C349        C  0.94502182  0.72020768  0.65500583    -0.07170
C350        C  0.93242403  0.73139967  0.60731890     0.13700
C351        C  0.96897672  0.75597608  0.57465488    -0.24000
H352        H  0.88185413  0.72306988  0.55197729     0.14980
H353        H  0.91672529  0.70176601  0.72459177     0.15010
C354        C  0.82305273  0.69432937  0.71027685    -0.23950
H355        H  0.95336880  0.76420921  0.53842477     0.05230
H356        H  0.00142321  0.73262239  0.56925530     0.08450
H357        H  0.98061660  0.79100855  0.59172877     0.08450
H358        H  0.81335729  0.65609809  0.71619509     0.08430
H359        H  0.79228171  0.71922043  0.70384563     0.08430
H360        H  0.83807952  0.70680048  0.74592616     0.05210
C361        C  0.78395092  0.79955631  0.62838913    -0.20590
C362        C  0.73835283  0.77690864  0.61926671    -0.07160
C363        C  0.69612927  0.80414635  0.62662416     0.13710
C364        C  0.70087463  0.85371972  0.63955470    -0.20650
C365        C  0.74598962  0.87753418  0.64659427    -0.07170
C366        C  0.78830244  0.84921453  0.64217836     0.13700
C367        C  0.83791052  0.87155040  0.64921214    -0.24000
H368        H  0.81671439  0.77954375  0.62187558     0.14980
H369        H  0.66876606  0.87449976  0.64391794     0.15010
C370        C  0.64622441  0.78164509  0.61730172    -0.23950
H371        H  0.86729275  0.84462291  0.64238663     0.05230
H372        H  0.84167285  0.88538113  0.68721433     0.08450
H373        H  0.84296460  0.90208160  0.62350995     0.08450
H374        H  0.63347285  0.75939041  0.64745083     0.08430
H375        H  0.64569010  0.75491019  0.58722447     0.08430
H376        H  0.61843687  0.80959875  0.61085639     0.05210
C377        C  0.73174662  0.20698723  0.47493822    -0.20590
C378        C  0.70622235  0.22420747  0.51590861    -0.07160
C379        C  0.68200606  0.18981156  0.54402873     0.13710
C380        C  0.69717900  0.14182828  0.54288831    -0.20650
C381        C  0.72972167  0.12436449  0.50747838    -0.07170
C382        C  0.74491761  0.15723176  0.47050212     0.13700
C383        C  0.77574022  0.14137888  0.42764069    -0.24000
H384        H  0.74288386  0.23262355  0.44772370     0.14980
H385        H  0.68277916  0.11792319  0.57059332     0.15010
C386        C  0.64306853  0.20417385  0.57887653    -0.23950
H387        H  0.78471152  0.17236341  0.40355147     0.05230
H388        H  0.75626604  0.11409100  0.40489397     0.08450
H389        H  0.81036592  0.12567078  0.44080649     0.08450
H390        H  0.61585070  0.22707396  0.56039518     0.08430
H391        H  0.65659422  0.22447423  0.61080988     0.08430
H392        H  0.62579013  0.17058180  0.59268477     0.05210
C393        C  0.85228273  0.37760934  0.50553812    -0.20590
C394        C  0.82815606  0.33374828  0.50659642    -0.07160
C395        C  0.85485258  0.29268566  0.48986698     0.13710
C396        C  0.90577881  0.29279251  0.49441593    -0.20650
C397        C  0.93064291  0.33618696  0.50469861    -0.07170
C398        C  0.90269436  0.37970443  0.50830934     0.13700
C399        C  0.92369696  0.42949666  0.51481046    -0.24000
H400        H  0.83158063  0.41087366  0.50578204     0.14980
H401        H  0.92615934  0.26074403  0.48341662     0.15010
C402        C  0.83495606  0.26116964  0.44940961    -0.23950
H403        H  0.89465963  0.45690794  0.52010521     0.05230
H404        H  0.94267720  0.43879854  0.48137086     0.08450
H405        H  0.94765432  0.43226320  0.54711406     0.08450
H406        H  0.82181721  0.22660583  0.46306795     0.08430
H407        H  0.86376140  0.25017430  0.42324391     0.08430
H408        H  0.80650580  0.28061508  0.42875834     0.05210
C409        C  0.79006888  0.13599859  0.60473663    -0.20590
C410        C  0.77802896  0.12396017  0.65199049    -0.07160
C411        C  0.76734677  0.16272611  0.68390529     0.13710
C412        C  0.74701582  0.20597097  0.66478513    -0.20650
C413        C  0.75228965  0.21709210  0.61487428    -0.07170
C414        C  0.78462812  0.18437723  0.58942898     0.13700
C415        C  0.82096823  0.20093606  0.55354680    -0.24000
H416        H  0.80630987  0.10872261  0.58092757     0.14980
H417        H  0.73322924  0.23326805  0.68902556     0.15010
C418        C  0.79271721  0.16333535  0.73232471    -0.23950
H419        H  0.85770430  0.20091267  0.57023571     0.05230
H420        H  0.81223381  0.23800915  0.54375175     0.08450
H421        H  0.82219434  0.17567444  0.52192393     0.08450
H422        H  0.83256880  0.16113205  0.72630171     0.08430
H423        H  0.78262271  0.13100643  0.75390086     0.08430
H424        H  0.78601797  0.19759161  0.75301508     0.05210
C425        C  0.84822839  0.28309485  0.63737989    -0.20590
C426        C  0.83336426  0.32685900  0.61557698    -0.07160
C427        C  0.86634301  0.36517416  0.61447295     0.13710
C428        C  0.91584199  0.35503177  0.62264175    -0.20650
C429        C  0.93180026  0.30802968  0.63667553    -0.07170
C430        C  0.89694746  0.27252750  0.64663785     0.13700
C431        C  0.91093120  0.22296422  0.66460456    -0.24000
H432        H  0.82253198  0.25643463  0.64742140     0.14980
H433        H  0.94205721  0.38390800  0.61827935     0.15010
C434        C  0.84783309  0.41631870  0.60706264    -0.23950
H435        H  0.87901709  0.19819655  0.66645725     0.05230
H436        H  0.92698956  0.22619238  0.70158372     0.08450
H437        H  0.93771336  0.20611601  0.63919473     0.08450
H438        H  0.82548545  0.42769442  0.63805087     0.08430
H439        H  0.82015590  0.41966446  0.57883908     0.08430
H440        H  0.87778359  0.44255028  0.60092259     0.05210
C441        C  0.77653898  0.48255250  0.24440038    -0.20590
C442        C  0.76040369  0.44826862  0.28036467    -0.07160
C443        C  0.77310153  0.39771240  0.26797283     0.13710
C444        C  0.78455896  0.38554456  0.21862098    -0.20650
C445        C  0.78914798  0.42107446  0.18246553    -0.07170
C446        C  0.79524629  0.46929931  0.19869125     0.13700
C447        C  0.82055152  0.50650245  0.16792784    -0.24000
H448        H  0.74034078  0.47034855  0.24807211     0.14980
H449        H  0.78725754  0.34779894  0.20753278     0.15010
C450        C  0.77096943  0.35609460  0.30242910    -0.23950
H451        H  0.80099447  0.51148107  0.13307171     0.05230
H452        H  0.85820163  0.49423234  0.15991792     0.08450
H453        H  0.82265449  0.54228692  0.18723985     0.08450
H454        H  0.73363019  0.35036006  0.31435559     0.08430
H455        H  0.79510670  0.36289625  0.33337432     0.08430
H456        H  0.78299287  0.32132096  0.28520546     0.05210
C457        C  0.85918793  0.39666360  0.39295200    -0.20590
C458        C  0.84853928  0.44557680  0.38222812    -0.07160
C459        C  0.88664866  0.46953481  0.35633410     0.13710
C460        C  0.93510843  0.45835831  0.36679190    -0.20650
C461        C  0.94623068  0.41169412  0.38147059    -0.07170
C462        C  0.90709571  0.37841177  0.38611586     0.13700
C463        C  0.91489935  0.32537991  0.37549036    -0.24000
H464        H  0.83085455  0.37205723  0.40423590     0.14980
H465        H  0.96430705  0.48240494  0.35543268     0.15010
C466        C  0.87867406  0.48098300  0.30415224    -0.23950
H467        H  0.87959482  0.30647430  0.37046300     0.05230
H468        H  0.93656732  0.30807631  0.40417925     0.08450
H469        H  0.93474923  0.32129720  0.34036237     0.08450
H470        H  0.84321373  0.49769032  0.30068643     0.08430
H471        H  0.90742357  0.50568165  0.29004797     0.08430
H472        H  0.87892606  0.44677662  0.28203346     0.05210
C473        C  0.67646287  0.52604714  0.26509996    -0.20590
C474        C  0.70879418  0.55123604  0.29510731    -0.07160
C475        C  0.73123585  0.59358749  0.27418859     0.13710
C476        C  0.73542140  0.59660163  0.22303477    -0.20650
C477        C  0.71409094  0.56166186  0.19214415    -0.07170
C478        C  0.68303726  0.52645994  0.21431284     0.13700
C479        C  0.66296405  0.48261092  0.18837283    -0.24000
H480        H  0.65584165  0.49653963  0.28080656     0.14980
H481        H  0.75330635  0.62786698  0.20708650     0.15010
C482        C  0.74390488  0.63965560  0.30241464    -0.23950
H483        H  0.67688425  0.44943211  0.20575671     0.05230
H484        H  0.62310917  0.48322727  0.19119560     0.08450
H485        H  0.67323918  0.47877384  0.15024905     0.08450
H486        H  0.76494427  0.66574569  0.27991507     0.08430
H487        H  0.76499185  0.63346872  0.33554556     0.08430
H488        H  0.71068519  0.65884841  0.31332622     0.05210
C489        C  0.87364185  0.54325825  0.43847096    -0.20590
C490        C  0.84270083  0.55365405  0.39901550    -0.07160
C491        C  0.86481158  0.58117776  0.36013312     0.13710
C492        C  0.91355080  0.59699174  0.36266729    -0.20650
C493        C  0.94486257  0.58200772  0.39912083    -0.07170
C494        C  0.92420351  0.55481258  0.43781272     0.13700
C495        C  0.95564794  0.53561361  0.47764289    -0.24000
H496        H  0.85920856  0.52144971  0.46784989     0.14980
H497        H  0.92837362  0.61858804  0.33322739     0.15010
C498        C  0.84291389  0.58991890  0.31142071    -0.23950
H499        H  0.93371117  0.52236256  0.50825106     0.05230
H500        H  0.97896295  0.56382225  0.49372879     0.08450
H501        H  0.98014996  0.50744166  0.46269065     0.08450
H502        H  0.83895040  0.62960842  0.30608652     0.08430
H503        H  0.86734294  0.57738537  0.28157735     0.08430
H504        H  0.80932855  0.56919778  0.30731996     0.05210
C505        C  0.24481479  0.27809281  0.57824327    -0.20590
C506        C  0.27591067  0.30461176  0.61077834    -0.07160
C507        C  0.25974597  0.30352072  0.66093771     0.13710
C508        C  0.21176209  0.28825426  0.67234956    -0.20650
C509        C  0.17978080  0.27006493  0.63701465    -0.07170
C510        C  0.19836221  0.26033005  0.59067760     0.13700
C511        C  0.16967894  0.22944582  0.55507818    -0.24000
H512        H  0.25846811  0.26703094  0.54326452     0.14980
H513        H  0.19809138  0.29298677  0.70920639     0.15010
C514        C  0.29102624  0.31383797  0.70439059    -0.23950
H515        H  0.18929847  0.22448848  0.51992341     0.05230
H516        H  0.13388432  0.24612224  0.54766278     0.08450
H517        H  0.16342278  0.19290948  0.57084620     0.08450
H518        H  0.29644778  0.35319642  0.70819501     0.08430
H519        H  0.32459916  0.29190305  0.70263864     0.08430
H520        H  0.27319310  0.30294409  0.73901224     0.05210
C521        C  0.36002465  0.15384786  0.65717550    -0.20590
C522        C  0.39320923  0.12289806  0.63538191    -0.07160
C523        C  0.43253863  0.14357502  0.60849106     0.13710
C524        C  0.43513191  0.19448757  0.60546171    -0.20650
C525        C  0.39315415  0.22190820  0.61169952    -0.07170
C526        C  0.35289044  0.19787587  0.63452606     0.13700
C527        C  0.30321080  0.19894594  0.61412404    -0.24000
H528        H  0.33056457  0.13840603  0.67861567     0.14980
H529        H  0.46728330  0.21220103  0.59251163     0.15010
C530        C  0.46973037  0.11378344  0.58062650    -0.23950
H531        H  0.28884640  0.16195173  0.60474571     0.05230
H532        H  0.30559282  0.21632776  0.57893626     0.08450
H533        H  0.27791024  0.21429850  0.64141206     0.08450
H534        H  0.45134983  0.09128611  0.55233349     0.08430
H535        H  0.49031922  0.08932112  0.60391544     0.08430
H536        H  0.49682032  0.13702857  0.56235156     0.05210
C537        C  0.35062251  0.20196419  0.49452087    -0.20590
C538        C  0.39416635  0.22734822  0.50471202    -0.07160
C539        C  0.43835779  0.20373760  0.49501001     0.13710
C540        C  0.43805678  0.15479078  0.47870681    -0.20650
C541        C  0.39447211  0.12738966  0.47268073    -0.07170
C542        C  0.34997028  0.15248201  0.47944991     0.13700
C543        C  0.30157889  0.12747712  0.47237860    -0.24000
H544        H  0.31656737  0.22042659  0.50041519     0.14980
H545        H  0.47275822  0.13743647  0.47241437     0.15010
C546        C  0.48617174  0.22994233  0.50264850    -0.23950
H547        H  0.27073210  0.15209300  0.48128752     0.05230
H548        H  0.29893776  0.09550292  0.49662316     0.08450
H549        H  0.29752750  0.11559723  0.43376960     0.08450
H550        H  0.48227972  0.26737774  0.51771728     0.08430
H551        H  0.50531775  0.23291177  0.46787746     0.08430
H552        H  0.50932258  0.21038450  0.52780543     0.05210
C553        C  0.20996095  0.31807772  0.47424889    -0.20590
C554        C  0.18242700  0.34099760  0.51130041    -0.07160
C555        C  0.20771472  0.37228718  0.54352739     0.13710
C556        C  0.25745772  0.38112385  0.53801748    -0.20650
C557        C  0.28575324  0.34961335  0.51010140    -0.07170
C558        C  0.26132871  0.32106646  0.47323570     0.13700
C559        C  0.28560941  0.29018782  0.43451877    -0.24000
H560        H  0.19153764  0.29641069  0.44653249     0.14980
H561        H  0.27549107  0.40504910  0.56430645     0.15010
C562        C  0.18621135  0.39303831  0.58814782    -0.23950
H563        H  0.27125963  0.25234761  0.43600022     0.05230
H564        H  0.32513275  0.28782135  0.43731719     0.08450
H565        H  0.27688706  0.30498774  0.39811974     0.08450
H566        H  0.14703063  0.38799697  0.59208198     0.08430
H567        H  0.19496317  0.43203962  0.58800744     0.08430
H568        H  0.20374802  0.37562961  0.61948675     0.05210
C569        C  0.46079978  0.33178945  0.26161840    -0.20590
C570        C  0.50890897  0.32000299  0.27411693    -0.07160
C571        C  0.53344870  0.29011650  0.23885627     0.13710
C572        C  0.51957706  0.29147206  0.18977097    -0.20650
C573        C  0.47164250  0.30262588  0.17826901    -0.07170
C574        C  0.44034564  0.31546186  0.21678925     0.13700
C575        C  0.38741896  0.30150963  0.21318096    -0.24000
H576        H  0.43780383  0.34633022  0.28935498     0.14980
H577        H  0.54305573  0.27620994  0.16169410     0.15010
C578        C  0.55859818  0.24440939  0.25252182    -0.23950
H579        H  0.36889558  0.30411914  0.24875961     0.05230
H580        H  0.38463629  0.26265214  0.20169381     0.08450
H581        H  0.36801923  0.32331648  0.18600749     0.08450
H582        H  0.55419233  0.23761966  0.29175251     0.08430
H583        H  0.59677846  0.24515175  0.23971142     0.08430
H584        H  0.54069087  0.21265952  0.23432801     0.05210
C585        C  0.51683311  0.17404367  0.38799025    -0.20590
C586        C  0.49553818  0.21634637  0.37131469    -0.07160
C587        C  0.45030374  0.20565561  0.34529213     0.13710
C588        C  0.43287455  0.15634113  0.33790760    -0.20650
C589        C  0.46063817  0.11578074  0.35071078    -0.07170
C590        C  0.50490968  0.12643773  0.37401748     0.13700
C591        C  0.53996183  0.08757359  0.38825292    -0.24000
H592        H  0.53911423  0.17614201  0.41806869     0.14980
H593        H  0.39816681  0.14942880  0.32040514     0.15010
C594        C  0.42037748  0.24279580  0.32055118    -0.23950
H595        H  0.57320683  0.10408919  0.39687478     0.05230
H596        H  0.54972720  0.06376463  0.35673052     0.08450
H597        H  0.52754434  0.06722074  0.42076886     0.08450
H598        H  0.43911837  0.24982562  0.28613175     0.08430
H599        H  0.41343738  0.27507747  0.34335384     0.08430
H600        H  0.38377592  0.22873013  0.31029781     0.05210
C601        C  0.60562718  0.21185825  0.45401630    -0.20590
C602        C  0.60914555  0.22932307  0.40618113    -0.07160
C603        C  0.63810541  0.20115456  0.37292605     0.13710
C604        C  0.65753225  0.15641830  0.38618799    -0.20650
C605        C  0.64306584  0.13434270  0.42902589    -0.07170
C606        C  0.61499397  0.16211440  0.46316127     0.13700
C607        C  0.58635017  0.13823125  0.50366170    -0.24000
H608        H  0.58579921  0.23337906  0.48054329     0.14980
H609        H  0.67874617  0.13580366  0.35970490     0.15010
C610        C  0.64687233  0.21386917  0.32165016    -0.23950
H611        H  0.56896042  0.16514811  0.52742942     0.05230
H612        H  0.60893702  0.11622990  0.52798085     0.08450
H613        H  0.55737516  0.11458674  0.48820491     0.08450
H614        H  0.68633538  0.22006263  0.31528601     0.08430
H615        H  0.62652866  0.24617982  0.31465045     0.08430
H616        H  0.63346549  0.18436456  0.29693294     0.05210
C617        C  0.60809112  0.38746390  0.20949338    -0.20590
C618        C  0.64060579  0.35304626  0.18930194    -0.07160
C619        C  0.66256755  0.32036809  0.22229161     0.13710
C620        C  0.65029250  0.32294236  0.27225747    -0.20650
C621        C  0.61197115  0.35191066  0.28975002    -0.07170
C622        C  0.59755905  0.38991759  0.26013384     0.13700
C623        C  0.57553012  0.43423670  0.28456499    -0.24000
H624        H  0.59238924  0.41336998  0.18535015     0.14980
H625        H  0.67103414  0.30219241  0.29752110     0.15010
C626        C  0.69685196  0.28074392  0.20567069    -0.23950
H627        H  0.57275578  0.46526810  0.25948799     0.05230
H628        H  0.59887206  0.44634392  0.31538297     0.08450
H629        H  0.53919802  0.42555901  0.29984635     0.08450
H630        H  0.72929495  0.29613360  0.18763132     0.08430
H631        H  0.67770274  0.25591019  0.17975389     0.08430
H632        H  0.70975753  0.25853018  0.23653250     0.05210
C633        C  0.21495325  0.39639821  0.38258731    -0.20590
C634        C  0.18917224  0.41485023  0.42163803    -0.07160
C635        C  0.21525359  0.44371139  0.45677356     0.13710
C636        C  0.26547163  0.45280061  0.44854623    -0.20650
C637        C  0.28300507  0.45144340  0.40031689    -0.07170
C638        C  0.25185570  0.42611395  0.36544053     0.13700
C639        C  0.23894143  0.44327011  0.31521566    -0.24000
H640        H  0.19646374  0.37192791  0.35720541     0.14980
H641        H  0.28627546  0.47290220  0.47575571     0.15010
C642        C  0.19099810  0.47230438  0.49759593    -0.23950
H643        H  0.20137279  0.43301576  0.30376566     0.05230
H644        H  0.26110091  0.42588642  0.28669949     0.08450
H645        H  0.23747065  0.48320570  0.31510340     0.08450
H646        H  0.16150377  0.45165113  0.51516996     0.08430
H647        H  0.17512887  0.50639573  0.48398005     0.08430
H648        H  0.21790433  0.48310957  0.52587098     0.05210
C649        C  0.37001639  0.41598835  0.21722923    -0.20590
C650        C  0.40886267  0.43188180  0.18818470    -0.07160
C651        C  0.45136503  0.44773241  0.21304744     0.13710
C652        C  0.44776424  0.46342517  0.26193742    -0.20650
C653        C  0.40724012  0.45104714  0.28993479    -0.07170
C654        C  0.37313464  0.41830341  0.26833007     0.13700
C655        C  0.34314349  0.38299872  0.29726424    -0.24000
H656        H  0.33904992  0.39795865  0.20050710     0.14980
H657        H  0.47763592  0.48274817  0.27928200     0.15010
C658        C  0.50173018  0.43767349  0.19465461    -0.23950
H659        H  0.31543201  0.36386298  0.27458337     0.05230
H660        H  0.32529618  0.40131201  0.32692844     0.08450
H661        H  0.36561891  0.35519876  0.31484293     0.08450
H662        H  0.52450940  0.47083192  0.19319390     0.08430
H663        H  0.50665810  0.41750076  0.16039514     0.08430
H664        H  0.51579368  0.41089570  0.22002947     0.05210
C665        C  0.34679506  0.54093368  0.19167381    -0.20590
C666        C  0.35841868  0.58774932  0.17830289    -0.07160
C667        C  0.37219879  0.62108949  0.21605174     0.13710
C668        C  0.38789306  0.60282655  0.26174683    -0.20650
C669        C  0.37828838  0.55418896  0.27495126    -0.06610
C670        C  0.34911577  0.52791421  0.24057325     0.13700
C671        C  0.30479134  0.50366251  0.25707777    -0.24000
H672        H  0.33123011  0.51611483  0.16475916     0.14980
H673        H  0.40214854  0.62824199  0.28824034     0.15010
C674        C  0.36377593  0.67496262  0.21144348    -0.23950
H675        H  0.29289263  0.47490774  0.23080850     0.05230
H676        H  0.27540590  0.53115189  0.26053722     0.08450
H677        H  0.31234793  0.48841092  0.29266015     0.08450
H678        H  0.32435028  0.68135188  0.20575603     0.08430
H679        H  0.38354310  0.69065742  0.18072050     0.08430
H680        H  0.37493943  0.69520060  0.24496695     0.05210
C681        C  0.23133039  0.54184620  0.39109691    -0.20590
C682        C  0.27356168  0.56368578  0.37301541    -0.07160
C683        C  0.26325995  0.60614720  0.34357198     0.13710
C684        C  0.21441739  0.62137080  0.33580463    -0.20650
C685        C  0.17533041  0.59399974  0.35244057    -0.07170
C686        C  0.18564023  0.54840351  0.37023564     0.13700
C687        C  0.14486831  0.51223795  0.37615110    -0.24000
H688        H  0.23226449  0.52654794  0.42582111     0.14980
H689        H  0.20657655  0.65409761  0.31582985     0.15010
C690        C  0.29943635  0.63557063  0.31640675    -0.23950
H691        H  0.11133092  0.52405299  0.35718430     0.05230
H692        H  0.15479952  0.47719607  0.35907804     0.08450
H693        H  0.13577940  0.50848904  0.41495573     0.08450
H694        H  0.30311822  0.61709272  0.28096038     0.08430
H695        H  0.33286541  0.64277822  0.33687341     0.08430
H696        H  0.28574026  0.67219123  0.30709614     0.05210
C697        C  0.27136783  0.70476397  0.45835073    -0.20590
C698        C  0.28168305  0.70925179  0.50885914    -0.07160
C699        C  0.24531615  0.73686247  0.53609604     0.13710
C700        C  0.19755514  0.74090580  0.51814623    -0.20650
C701        C  0.18624569  0.72832604  0.47059644    -0.07170
C702        C  0.22556865  0.71863197  0.43906607     0.13700
C703        C  0.21999849  0.72893647  0.38603579    -0.24000
H704        H  0.29907040  0.69196172  0.43346717     0.14980
H705        H  0.16835736  0.75314235  0.54198868     0.15010
C706        C  0.25268653  0.76459275  0.58291307    -0.23950
H707        H  0.25348813  0.71992851  0.36545968     0.05230
H708        H  0.21313791  0.76844571  0.38160741     0.08450
H709        H  0.18832026  0.70907838  0.37105382     0.08450
H710        H  0.28555262  0.75409894  0.60206242     0.08430
H711        H  0.22167256  0.76021525  0.60806747     0.08430
H712        H  0.25274381  0.80405606  0.57500149     0.05210
C713        C  0.36947877  0.79354492  0.47285636    -0.20590
C714        C  0.40589828  0.77802678  0.50525407    -0.07160
C715        C  0.44330482  0.81034594  0.51639697     0.13710
C716        C  0.43672199  0.86045777  0.50744358    -0.20650
C717        C  0.39501217  0.87833165  0.48295920    -0.07170
C718        C  0.36020782  0.84324251  0.46606638     0.13700
C719        C  0.30951219  0.85497793  0.44775484    -0.24000
H720        H  0.34237752  0.76802935  0.46029726     0.14980
H721        H  0.46423481  0.88571682  0.52002626     0.15010
C722        C  0.49053466  0.78992253  0.53464612    -0.23950
H723        H  0.28225219  0.83546689  0.47034259     0.05230
H724        H  0.30319654  0.84094771  0.41041625     0.08450
H725        H  0.29985063  0.89387278  0.45008605     0.08450
H726        H  0.50296712  0.76003511  0.51032284     0.08430
H727        H  0.48572935  0.77346614  0.57095498     0.08430
H728        H  0.51962684  0.81789655  0.53537693     0.05210
C729        C  0.19580686  0.65428757  0.59409373    -0.20590
C730        C  0.18610792  0.68040513  0.63777143    -0.07160
C731        C  0.22568823  0.68959006  0.66978840     0.13710
C732        C  0.27327490  0.67824214  0.65418769    -0.20650
C733        C  0.28315596  0.65945706  0.60716156    -0.07170
C734        C  0.24282964  0.64071040  0.58023204     0.13700
C735        C  0.24738691  0.60792521  0.53555761    -0.24000
H736        H  0.16632580  0.64238068  0.57059059     0.14980
H737        H  0.30270765  0.68738142  0.67775471     0.15010
C738        C  0.21903156  0.71311645  0.71927321    -0.23950
H739        H  0.23052712  0.62507995  0.50342726     0.05230
H740        H  0.28563564  0.59853191  0.52677817     0.08450
H741        H  0.22719800  0.57352186  0.54185833     0.08450
H742        H  0.19641674  0.68948418  0.74276733     0.08430
H743        H  0.20143848  0.74915512  0.71534873     0.08430
H744        H  0.25432185  0.71901691  0.73818699     0.05210
C745        C  0.34774085  0.81721884  0.58386275    -0.20590
C746        C  0.37239980  0.78315497  0.61343198    -0.07160
C747        C  0.37320086  0.79721054  0.66451268     0.13710
C748        C  0.36596989  0.84656083  0.67775892    -0.20650
C749        C  0.35316711  0.88111945  0.64348258    -0.07170
C750        C  0.33800450  0.86532942  0.59819281     0.13700
C751        C  0.30870627  0.89926406  0.56750609    -0.24000
H752        H  0.33175743  0.80508682  0.55061407     0.14980
H753        H  0.37302503  0.85872757  0.71486464     0.15010
C754        C  0.37768720  0.76428124  0.70755936    -0.23950
H755        H  0.27931798  0.91584205  0.59002415     0.05230
H756        H  0.33217064  0.92872598  0.55296473     0.08450
H757        H  0.29046765  0.87969088  0.53753675     0.08450
H758        H  0.41556394  0.76029039  0.71913586     0.08430
H759        H  0.35993662  0.72944589  0.70174231     0.08430
H760        H  0.35806569  0.77971824  0.73968977     0.05210
C761        C  0.49065828  0.70330720  0.20425688    -0.20590
C762        C  0.48040223  0.65852695  0.18385442    -0.07160
C763        C  0.48531824  0.61596151  0.21301869     0.13710
C764        C  0.50017667  0.62094738  0.26202291    -0.20650
C765        C  0.51416531  0.66596537  0.28174941    -0.07170
C766        C  0.51170776  0.70670389  0.25013428     0.13700
C767        C  0.53778434  0.75266371  0.25853824    -0.24000
H768        H  0.48831741  0.73543476  0.18168354     0.14980
H769        H  0.50462566  0.58869803  0.28383915     0.15010
C770        C  0.47596839  0.56433573  0.19484889    -0.23950
H771        H  0.56269927  0.76037997  0.22755069     0.05230
H772        H  0.51092157  0.78254510  0.26151389     0.08450
H773        H  0.56060432  0.74870213  0.29043655     0.08450
H774        H  0.43827988  0.55366245  0.19638568     0.08430
H775        H  0.48853789  0.55568715  0.15757033     0.08430
H776        H  0.49357751  0.53887728  0.21961057     0.05210
C777        C  0.45791325  0.78748989  0.36531604    -0.20590
C778        C  0.50979138  0.78501598  0.36486739    -0.07160
C779        C  0.53259685  0.82695112  0.34140484     0.13710
C780        C  0.50559123  0.86856142  0.32994818    -0.20650
C781        C  0.45597361  0.87227322  0.33828052    -0.07170
C782        C  0.43147259  0.82931361  0.35087765     0.13700
C783        C  0.37746081  0.82683514  0.34482151    -0.24000
H784        H  0.43666053  0.75640535  0.37518449     0.14980
H785        H  0.52447330  0.90087950  0.31713971     0.15010
C786        C  0.58329626  0.83127990  0.32116192    -0.23950
H787        H  0.36171815  0.79318502  0.36062753     0.05230
H788        H  0.36864264  0.82739922  0.30536982     0.08450
H789        H  0.36092547  0.85935862  0.36190940     0.08450
H790        H  0.60516139  0.80017510  0.32915863     0.08430
H791        H  0.58201630  0.83489490  0.28093375     0.08430
H792        H  0.60141071  0.86501437  0.33374371     0.05210
C793        C  0.60774240  0.61799062  0.26004593    -0.20590
C794        C  0.61897979  0.66044179  0.28625880    -0.07160
C795        C  0.64259848  0.69817769  0.25900220     0.13710
C796        C  0.64783844  0.69471115  0.20800347    -0.20650
C797        C  0.62833761  0.65575571  0.18159116    -0.07170
C798        C  0.60869367  0.61651309  0.20867673     0.13700
C799        C  0.58595918  0.57352125  0.18387667    -0.24000
H800        H  0.59208987  0.58770504  0.27972313     0.14980
H801        H  0.66635224  0.72360458  0.18860293     0.15010
C802        C  0.66419665  0.74255656  0.28118262    -0.23950
H803        H  0.55788636  0.58699405  0.15938317     0.05230
H804        H  0.57170021  0.54678791  0.21014242     0.08450
H805        H  0.61113217  0.55447513  0.16001720     0.08450
H806        H  0.70437929  0.74201455  0.27681169     0.08430
H807        H  0.65496228  0.74330538  0.31930228     0.08430
H808        H  0.64992452  0.77555375  0.26335548     0.05210
C809        C  0.58030035  0.81118135  0.44067226    -0.20590
C810        C  0.61285841  0.77945274  0.41639920    -0.07160
C811        C  0.65894642  0.80132702  0.40283090     0.13710
C812        C  0.66428272  0.85263943  0.40468861    -0.20650
C813        C  0.62639782  0.88395139  0.41901878    -0.07170
C814        C  0.58376693  0.86217711  0.43755601     0.13700
C815        C  0.54072963  0.89150464  0.45398143    -0.24000
H816        H  0.54688592  0.79642538  0.45468102     0.14980
H817        H  0.69913340  0.86848523  0.39480361     0.15010
C818        C  0.70495371  0.77576905  0.38708044    -0.23950
H819        H  0.53976811  0.89301428  0.49427164     0.05230
H820        H  0.54150998  0.92906717  0.44001850     0.08450
H821        H  0.50700086  0.87410636  0.43993158     0.08450
H822        H  0.71839419  0.79144696  0.35241758     0.08430
H823        H  0.70188626  0.73667101  0.38109354     0.08430
H824        H  0.73363084  0.78249105  0.41462174     0.05210
C825        C  0.53335153  0.69306875  0.93055856    -0.20590
C826        C  0.48515611  0.68381546  0.94052768    -0.07160
C827        C  0.45184846  0.68728194  0.90142795     0.13710
C828        C  0.46866886  0.67893547  0.85306078    -0.20650
C829        C  0.51897081  0.68085153  0.84251472    -0.07170
C830        C  0.54825027  0.69982395  0.88233810     0.13700
C831        C  0.58833265  0.73643783  0.87697910    -0.24000
H832        H  0.55815406  0.70013654  0.96055031     0.14980
H833        H  0.44271544  0.67586127  0.82369743     0.15010
C834        C  0.40300262  0.71034715  0.90990687    -0.23950
H835        H  0.61938175  0.72929062  0.90068268     0.05230
H836        H  0.57559397  0.77212683  0.89127485     0.08450
H837        H  0.59958376  0.73942691  0.83882676     0.08450
H838        H  0.40847274  0.74654632  0.92763892     0.08430
H839        H  0.37985934  0.68857339  0.93403660     0.08430
H840        H  0.38370857  0.71691943  0.87535094     0.05210
C841        C  0.49642221  0.79376236  0.68603219    -0.20590
C842        C  0.50969696  0.77729045  0.73213179    -0.07160
C843        C  0.49998528  0.80934275  0.77261705     0.13710
C844        C  0.47979365  0.85524752  0.76596278    -0.20650
C845        C  0.47467100  0.87352159  0.71990380    -0.07170
C846        C  0.48130095  0.84180201  0.67899224     0.13700
C847        C  0.47724204  0.85693183  0.62667203    -0.24000
H848        H  0.50692131  0.77255053  0.65427596     0.14980
H849        H  0.47349028  0.87947099  0.79691320     0.15010
C850        C  0.51724572  0.80068651  0.82236486    -0.23950
H851        H  0.44717970  0.83707731  0.60947793     0.05230
H852        H  0.51165788  0.84814573  0.60788350     0.08450
H853        H  0.47132817  0.89517705  0.61918129     0.08450
H854        H  0.55713287  0.80079107  0.81959660     0.08430
H855        H  0.49978720  0.76782803  0.83594294     0.08430
H856        H  0.50775738  0.83005185  0.84896830     0.05210
C857        C  0.60140232  0.82050512  0.71071724    -0.20590
C858        C  0.62083394  0.78406044  0.74006151    -0.07160
C859        C  0.65995760  0.80093352  0.77104393     0.13710
C860        C  0.67135163  0.85176848  0.77510200    -0.20650
C861        C  0.64657798  0.88740527  0.74854448    -0.07170
C862        C  0.61095851  0.87042500  0.71544972     0.13700
C863        C  0.58459100  0.90402574  0.68142484    -0.24000
H864        H  0.57989567  0.80940287  0.68056465     0.14980
H865        H  0.70129008  0.86364103  0.79805441     0.15010
C866        C  0.69343938  0.76777165  0.79764973    -0.23950
H867        H  0.55962558  0.88451632  0.65770468     0.05230
H868        H  0.60867385  0.92230670  0.65492962     0.08450
H869        H  0.56497126  0.93164422  0.70347164     0.08450
H870        H  0.70774203  0.73929181  0.77288869     0.08430
H871        H  0.67515328  0.75330720  0.82988858     0.08430
H872        H  0.72597884  0.78735420  0.81195821     0.05210
C873        C  0.66275923  0.65813892  0.84615562    -0.20590
C874        C  0.61849689  0.63799348  0.82908129    -0.07160
C875        C  0.59487799  0.60521726  0.85972357     0.13710
C876        C  0.60358972  0.60825130  0.90982639    -0.20650
C877        C  0.64061518  0.63871261  0.92941420    -0.07170
C878        C  0.67375241  0.66013929  0.89624817     0.13700
C879        C  0.71652792  0.69069731  0.91291860    -0.24000
H880        H  0.68694409  0.67582105  0.82132668     0.14980
H881        H  0.57982966  0.58770166  0.93346375     0.15010
C882        C  0.55672298  0.57113052  0.84079911    -0.23950
H883        H  0.73705690  0.70602296  0.88172956     0.05230
H884        H  0.74207094  0.66880960  0.93459876     0.08450
H885        H  0.70348321  0.72188462  0.93546427     0.08450
H886        H  0.55526194  0.57005350  0.80036156     0.08430
H887        H  0.52159178  0.58373944  0.85532233     0.08430
H888        H  0.56437206  0.53396154  0.85325800     0.05210
C889        C  0.24872892  0.44828917  0.68598819    -0.20590
C890        C  0.27610124  0.44722360  0.72898920    -0.07160
C891        C  0.24886456  0.42921591  0.77060689     0.13710
C892        C  0.21446274  0.39194743  0.75951472    -0.20650
C893        C  0.18241079  0.40268872  0.72119599    -0.07170
C894        C  0.19862972  0.43837076  0.68774151     0.13700
C895        C  0.16414735  0.47330519  0.66297716    -0.24000
H896        H  0.26469495  0.45925337  0.65246753     0.14980
H897        H  0.20224450  0.36743491  0.78772842     0.15010
C898        C  0.21697065  0.46500707  0.79993795    -0.23950
H899        H  0.18434413  0.49569019  0.63698946     0.05230
H900        H  0.14569248  0.49553446  0.69130281     0.08450
H901        H  0.13546060  0.45812621  0.63934147     0.08450
H902        H  0.23326751  0.49914237  0.81094644     0.08430
H903        H  0.20244487  0.44762710  0.83344525     0.08430
H904        H  0.18508670  0.47757754  0.77869919     0.05210
C905        C  0.43294134  0.44106872  0.85992394    -0.20590
C906        C  0.38917660  0.45644879  0.84059678    -0.07160
C907        C  0.35048112  0.46364394  0.87467034     0.13710
C908        C  0.35476829  0.45186580  0.92386777    -0.20650
C909        C  0.39867759  0.43691010  0.94232012    -0.07170
C910        C  0.43863529  0.43164945  0.90977227     0.13700
C911        C  0.48867022  0.41719365  0.92487762    -0.24000
H912        H  0.46423787  0.44212039  0.83678737     0.14980
H913        H  0.32407569  0.45663508  0.94846414     0.15010
C914        C  0.30484162  0.48696506  0.86208975    -0.23950
H915        H  0.51310221  0.44763110  0.91824557     0.05230
H916        H  0.49895494  0.38441809  0.90413681     0.08450
H917        H  0.49651258  0.40927592  0.96248848     0.08450
H918        H  0.27512555  0.46139956  0.87157697     0.08430
H919        H  0.30620864  0.49505450  0.82337716     0.08430
H920        H  0.29970431  0.52120954  0.88328396     0.05210
C921        C  0.21438337  0.57208524  0.67157443    -0.20590
C922        C  0.18840792  0.58100795  0.71553604    -0.07160
C923        C  0.21469871  0.58057053  0.75939751     0.13710
C924        C  0.26342554  0.56596225  0.75819551    -0.20650
C925        C  0.28761081  0.55220643  0.71523621    -0.07170
C926        C  0.26337427  0.55675407  0.67072352     0.13700
C927        C  0.28711241  0.54011075  0.62325650    -0.24000
H928        H  0.19512661  0.57367572  0.63747026     0.14980
H929        H  0.28163378  0.56101687  0.79213118     0.15010
C930        C  0.19148080  0.59216031  0.80809625    -0.23950
H931        H  0.26031849  0.52150911  0.59918278     0.05230
H932        H  0.31772344  0.51471681  0.62908470     0.08450
H933        H  0.30380227  0.57030077  0.60358902     0.08450
H934        H  0.15942163  0.56811353  0.81388122     0.08430
H935        H  0.18021411  0.63087584  0.80967817     0.08430
H936        H  0.21701484  0.58649260  0.83880718     0.05210
C937        C  0.35543355  0.60293691  0.89679424    -0.20590
C938        C  0.38882761  0.58286137  0.92916631    -0.07160
C939        C  0.43067086  0.55903622  0.90865589     0.13710
C940        C  0.43331594  0.55063129  0.85853752    -0.20650
C941        C  0.39592812  0.56271095  0.82765976    -0.07170
C942        C  0.36049950  0.59643559  0.84596261     0.13700
C943        C  0.33369702  0.63276230  0.81536485    -0.24000
H944        H  0.32638739  0.62567213  0.91100480     0.14980
H945        H  0.46299838  0.52964409  0.84320541     0.15010
C946        C  0.47418024  0.54192985  0.93713353    -0.23950
H947        H  0.29491574  0.63481451  0.82659229     0.05230
H948        H  0.33558860  0.62585380  0.77609034     0.08450
H949        H  0.34951235  0.66938186  0.82110211     0.08450
H950        H  0.49515622  0.57281434  0.95094615     0.08430
H951        H  0.46418867  0.51611356  0.96613116     0.08430
H952        H  0.50089176  0.52330891  0.91349451     0.05210
C953        C  0.46817415  0.20639636  0.74684605    -0.20590
C954        C  0.50526205  0.22422457  0.71615856    -0.07160
C955        C  0.52472304  0.19252708  0.68143108     0.13710
C956        C  0.51804337  0.14222193  0.68549701    -0.20650
C957        C  0.48455980  0.12259782  0.71873066    -0.07170
C958        C  0.45717091  0.15599323  0.74824140     0.13700
C959        C  0.41782939  0.13945405  0.78267091    -0.24000
H960        H  0.45135070  0.23083555  0.77314791     0.14980
H961        H  0.53947497  0.11844191  0.66220225     0.15010
C962        C  0.55857455  0.21115642  0.64443717    -0.23950
H963        H  0.40130954  0.17053295  0.80297972     0.05230
H964        H  0.43330489  0.11434286  0.80988584     0.08450
H965        H  0.38822238  0.12103757  0.76196716     0.08450
H966        H  0.59515365  0.20236967  0.65824654     0.08430
H967        H  0.55573785  0.25112681  0.63945989     0.08430
H968        H  0.54999758  0.19340252  0.60902901     0.05210
C969        C  0.44718824  0.31989239  0.85071594    -0.20590
C970        C  0.49610190  0.30683658  0.84149987    -0.07160
C971        C  0.51607686  0.27522042  0.87716369     0.13710
C972        C  0.49926614  0.27644510  0.92520801    -0.20650
C973        C  0.45496107  0.29759827  0.93644172    -0.07170
C974        C  0.42554834  0.31298777  0.89718983     0.13700
C975        C  0.37178169  0.32103169  0.90369971    -0.24000
H976        H  0.42518098  0.33513874  0.82277162     0.14980
H977        H  0.51955730  0.25847409  0.95360895     0.15010
C978        C  0.54194889  0.22997274  0.86290151    -0.23950
H979        H  0.35459883  0.33408236  0.86970257     0.05230
H980        H  0.36436443  0.34785635  0.93290598     0.08450
H981        H  0.35416872  0.28609631  0.91374668     0.08450
H982        H  0.56816739  0.21845550  0.89122456     0.08430
H983        H  0.51515222  0.20021539  0.85627190     0.08430
H984        H  0.56135008  0.23746649  0.82966368     0.05210
C985        C  0.58666360  0.17713798  0.76810939    -0.20590
C986        C  0.61430053  0.21965855  0.75688949    -0.07160
C987        C  0.66523816  0.21450717  0.77029784     0.13710
C988        C  0.68475824  0.16713271  0.77646058    -0.20650
C989        C  0.65656369  0.12506380  0.77238742    -0.07170
C990        C  0.60650198  0.13080935  0.77475313     0.13700
C991        C  0.57463710  0.08807315  0.78802794    -0.24000
H992        H  0.54900172  0.17941197  0.77579185     0.14980
H993        H  0.72114480  0.16291509  0.78940932     0.15010
C994        C  0.69994096  0.25442693  0.78748271    -0.23950
H995        H  0.53684977  0.09939326  0.79644687     0.05230
H996        H  0.58903655  0.07078971  0.82135953     0.08450
H997        H  0.57398486  0.06070934  0.75789511     0.08450
H998        H  0.71706742  0.24339421  0.82228369     0.08430
H999        H  0.68359242  0.28924309  0.79695490     0.08430
H1000       H  0.72982116  0.26092382  0.76149668     0.05210
C1001       C  0.62445578  0.30001772  0.87065865    -0.20590
C1002       C  0.59884339  0.33704983  0.84712986    -0.07160
C1003       C  0.58644211  0.37844913  0.87441187     0.13710
C1004       C  0.59814190  0.38160984  0.92508591    -0.20650
C1005       C  0.62690280  0.34573513  0.94801180    -0.07170
C1006       C  0.63848668  0.30337291  0.91989941     0.13700
C1007       C  0.66595167  0.26090756  0.94056780    -0.24000
H1008       H  0.63184948  0.26671568  0.85129536     0.14980
H1009       H  0.59000358  0.41489112  0.94487824     0.15010
C1010       C  0.56887737  0.42172069  0.84591774    -0.23950
H1011       H  0.66811779  0.22976926  0.91437320     0.05230
H1012       H  0.64716591  0.24761659  0.97376392     0.08450
H1013       H  0.70396564  0.27180791  0.94905701     0.08450
H1014       H  0.56760740  0.45538352  0.86741412     0.08430
H1015       H  0.59288881  0.42921617  0.81455979     0.08430
H1016       H  0.53330423  0.41335153  0.82989157     0.05210
C1017       C  0.88404221  0.46287838  0.69735713    -0.20590
C1018       C  0.84901004  0.44291624  0.72859928    -0.07160
C1019       C  0.86652973  0.40427199  0.75878269     0.13710
C1020       C  0.91663860  0.39139882  0.75708443    -0.20650
C1021       C  0.95032326  0.41441878  0.72597831    -0.07170
C1022       C  0.93333082  0.45228398  0.69686660     0.13700
C1023       C  0.96577773  0.48074825  0.66257523    -0.24000
H1024       H  0.87181151  0.48541118  0.66936237     0.14980
H1025       H  0.92885463  0.36082175  0.77838053     0.15010
C1026       C  0.83613094  0.37243803  0.79141558    -0.23950
H1027       H  0.94749660  0.51314113  0.64797305     0.05230
H1028       H  0.97603513  0.45885312  0.63003695     0.08450
H1029       H  0.99893829  0.49308649  0.68218358     0.08450
H1030       H  0.79702371  0.37825245  0.79033403     0.08430
H1031       H  0.84833978  0.37718447  0.82974355     0.08430
H1032       H  0.84134934  0.33370296  0.78044646     0.05210
C1033       C  0.80270165  0.46687061  0.87215160    -0.20590
C1034       C  0.76229940  0.45087202  0.84382575    -0.07160
C1035       C  0.73355860  0.41554370  0.86506983     0.13710
C1036       C  0.74556734  0.39295981  0.90855866    -0.20650
C1037       C  0.77880870  0.41449496  0.93994222    -0.07170
C1038       C  0.80986128  0.45067668  0.92086162     0.13700
C1039       C  0.85088506  0.47064533  0.95117552    -0.24000
H1040       H  0.82656614  0.49427452  0.85888077     0.14980
H1041       H  0.72105605  0.36556765  0.92265046     0.15010
C1042       C  0.68325743  0.41218197  0.85164718    -0.23950
H1043       H  0.87316980  0.49727033  0.93055451     0.05230
H1044       H  0.87490233  0.44028630  0.96216826     0.08450
H1045       H  0.83623749  0.48903309  0.98432109     0.08450
H1046       H  0.67775383  0.37502736  0.83765269     0.08430
H1047       H  0.67139646  0.44065551  0.82701913     0.08430
H1048       H  0.66377819  0.42195120  0.88483978     0.05210
C1049       C  0.68879342  0.53364412  0.86249467    -0.20590
C1050       C  0.72826175  0.55171481  0.83610883    -0.07160
C1051       C  0.76459910  0.57775270  0.86253630     0.13710
C1052       C  0.76540180  0.57586437  0.91394868    -0.20650
C1053       C  0.72895208  0.55153010  0.94042363    -0.07170
C1054       C  0.68962156  0.53049451  0.91353505     0.13700
C1055       C  0.64810174  0.50355041  0.93730308    -0.24000
H1056       H  0.65881902  0.51762679  0.84233221     0.14980
H1057       H  0.79379593  0.59544044  0.93347888     0.15010
C1058       C  0.80072696  0.61094011  0.83855736    -0.23950
H1059       H  0.62170042  0.49038615  0.91024405     0.05230
H1060       H  0.62681248  0.52682188  0.96237449     0.08450
H1061       H  0.66244593  0.47189157  0.95711987     0.08450
H1062       H  0.79644924  0.61182104  0.79859708     0.08430
H1063       H  0.83824198  0.60024799  0.84840561     0.08430
H1064       H  0.79527691  0.64868580  0.85221172     0.05210
C1065       C  0.86942544  0.54904510  0.77129668    -0.20590
C1066       C  0.84185339  0.55110446  0.72789515    -0.07160
C1067       C  0.86490383  0.57140410  0.68700493     0.13710
C1068       C  0.91154157  0.59110146  0.69179055    -0.20650
C1069       C  0.93991817  0.58610086  0.73360025    -0.07170
C1070       C  0.91816798  0.56554747  0.77475034     0.13700
C1071       C  0.94672463  0.55812943  0.82063600    -0.24000
H1072       H  0.85390089  0.53076819  0.80141834     0.14980
H1073       H  0.92858775  0.60535188  0.66024630     0.15010
C1074       C  0.84740479  0.56285848  0.63585677    -0.23950
H1075       H  0.92425792  0.54046905  0.84920691     0.05230
H1076       H  0.95964873  0.59384920  0.83509597     0.08450
H1077       H  0.97855118  0.53451111  0.81270836     0.08450
H1078       H  0.81595227  0.53747020  0.63326892     0.08430
H1079       H  0.87662822  0.54647649  0.61308003     0.08430
H1080       H  0.83805666  0.59814349  0.62111617     0.05210
loop_ 
_geom_bond_atom_site_label_1 
_geom_bond_atom_site_label_2 
_geom_bond_distance 
_geom_bond_site_symmetry_2 
_ccdc_geom_bond_type 
C1            C2   1.452       .  A
C1            C6   1.489       .  A
C1         C1066   1.516       .  S
C2            C3   1.444       .  A
C2          C136   1.595       .  S
C3            C4   1.451       .  A
C3         C1050   1.503       .  S
C4            C5   1.431       .  A
C4         C1034   1.540       .  S
C5            C6   1.437       .  A
C5            C9   1.612       .  S
C6         C1018   1.558       .  S
C7            C8   1.431       .  A
C7           C12   1.451       .  A
C7          C107   1.578       .  S
C8            C9   1.425       .  A
C8           H13   1.065       .  S
C9           C10   1.465       .  A
C10          C11   1.451       .  A
C10          H14   1.062       .  S
C11          C12   1.448       .  A
C11          C17   1.630       .  S
C12          H15   1.079       .  S
C16          C17   1.430       .  A
C16          C21   1.504       .  A
C16         C986   1.585       .  S
C17          C18   1.469       .  A
C18          C19   1.475       .  A
C18        C1002   1.505       .  S
C19          C20   1.420       .  A
C19         C970   1.556       .  S
C20          C21   1.444       .  A
C20          C30   1.594       .  S
C21         C954   1.500       .  S
C22          C23   1.453       .  A
C22          C27   1.469       .  A
C22         C925   1.488       .  S
C23          C24   1.412       .  A
C23          C45   1.588       .  S
C24          C25   1.468       .  A
C24         C941   1.511       .  S
C25          C26   1.447       .  A
C25         C906   1.524       .  S
C26          C27   1.439       .  A
C26          C32   1.598       .  S
C27         C890   1.558       .  S
C28          C29   1.439       .  A
C28          C33   1.441       .  A
C28          C95   1.578       .  S
C29          C30   1.436       .  A
C29          H34   1.075       .  S
C30          C31   1.449       .  A
C31          C32   1.445       .  A
C31          H35   1.069       .  S
C32          C33   1.440       .  A
C33          H36   1.082       .  S
C37          C38   1.464       .  A
C37          C42   1.449       .  A
C37         C829   1.551       .  S
C38          C39   1.436       .  A
C38         C874   1.519       .  S
C39          C40   1.478       .  A
C39         C138   1.597       .  S
C40          C41   1.501       .  A
C40         C858   1.574       .  S
C41          C42   1.443       .  A
C41         C842   1.522       .  S
C42          C47   1.634       .  S
C43          C44   1.426       .  A
C43          C48   1.460       .  A
C43          C59   1.608       .  S
C44          C45   1.430       .  A
C44          H49   1.064       .  S
C45          C46   1.459       .  A
C46          C47   1.446       .  A
C46          H50   1.079       .  S
C47          C48   1.464       .  A
C48          H51   1.063       .  S
C52          C53   1.487       .  A
C52          C57   1.499       .  A
C52         C810   1.550       .  S
C53          C54   1.462       .  A
C53         C129   1.619       .  S
C54          C55   1.464       .  A
C54         C794   1.536       .  S
C55          C56   1.426       .  A
C55         C765   1.521       .  S
C56          C57   1.447       .  A
C56          C68   1.607       .  S
C57         C778   1.590       .  S
C58          C59   1.475       .  A
C58          C63   1.469       .  A
C58         C733   1.518       .  S
C59          C60   1.443       .  A
C60          C61   1.493       .  A
C60         C746   1.564       .  S
C61          C62   1.425       .  A
C61         C714   1.509       .  S
C62          C63   1.437       .  A
C62          C64   1.590       .  S
C63         C698   1.572       .  S
C64          C65   1.442       .  A
C64          C69   1.453       .  A
C65          C66   1.440       .  A
C65          H70   1.082       .  S
C66          C67   1.445       .  A
C66          C74   1.588       .  S
C67          C68   1.441       .  A
C67          H71   1.069       .  S
C68          C69   1.442       .  A
C69          H72   1.073       .  S
C73          C74   1.440       .  A
C73          C78   1.505       .  A
C73         C682   1.573       .  S
C74          C75   1.428       .  A
C75          C76   1.470       .  A
C75         C669   1.552       .  S
C76          C77   1.447       .  A
C76         C653   1.507       .  S
C77          C78   1.476       .  A
C77          C89   1.619       .  S
C78         C637   1.534       .  S
C79          C80   1.469       .  A
C79          C84   1.433       .  A
C79         C570   1.540       .  S
C80          C81   1.448       .  A
C80         C621   1.519       .  S
C81          C82   1.477       .  A
C81         C114   1.618       .  S
C82          C83   1.522       .  A
C82         C602   1.530       .  S
C83          C84   1.440       .  A
C83         C586   1.604       .  S
C84          C87   1.607       .  S
C85          C86   1.442       .  A
C85          C90   1.455       .  A
C85          C98   1.609       .  S
C86          C87   1.434       .  A
C86          H91   1.059       .  S
C87          C88   1.446       .  A
C88          C89   1.459       .  A
C88          H92   1.076       .  S
C89          C90   1.452       .  A
C90          H93   1.074       .  S
C94          C95   1.416       .  A
C94          C99   1.465       .  A
C94         C525   1.513       .  S
C95          C96   1.425       .  A
C96          C97   1.493       .  A
C96         C506   1.573       .  S
C97          C98   1.445       .  A
C97         C557   1.503       .  S
C98          C99   1.450       .  A
C99         C538   1.506       .  S
C100        C101   1.471       .  A
C100        C105   1.491       .  A
C100        C490   1.549       .  S
C101        C102   1.446       .  A
C101        C127   1.604       .  S
C102        C103   1.498       .  A
C102        C474   1.535       .  S
C103        C104   1.426       .  A
C103        C442   1.596       .  S
C104        C105   1.454       .  A
C104        C112   1.621       .  S
C105        C458   1.553       .  S
C106        C107   1.408       .  A
C106        C111   1.477       .  A
C106        C413   1.567       .  S
C107        C108   1.418       .  A
C108        C109   1.478       .  A
C108        C426   1.497       .  S
C109        C110   1.428       .  A
C109        C394   1.514       .  S
C110        C111   1.462       .  A
C110        C116   1.598       .  S
C111        C378   1.490       .  S
C112        C113   1.456       .  A
C112        C117   1.434       .  A
C113        C114   1.465       .  A
C113        H118   1.075       .  S
C114        C115   1.447       .  A
C115        C116   1.437       .  A
C115        H119   1.069       .  S
C116        C117   1.451       .  A
C117        H120   1.062       .  S
C121        C122   1.448       .  A
C121        C126   1.436       .  A
C121        C314   1.508       .  S
C122        C123   1.407       .  A
C122        C362   1.502       .  S
C123        C124   1.437       .  A
C123        C140   1.577       .  S
C124        C125   1.510       .  A
C124        C346   1.583       .  S
C125        C126   1.452       .  A
C125        C330   1.536       .  S
C126        C131   1.583       .  S
C127        C128   1.462       .  A
C127        C132   1.432       .  A
C128        C129   1.452       .  A
C128        H133   1.076       .  S
C129        C130   1.442       .  A
C130        C131   1.448       .  A
C130        H134   1.072       .  S
C131        C132   1.441       .  A
C132        H135   1.078       .  S
C136        C137   1.433       .  A
C136        C141   1.430       .  A
C137        C138   1.459       .  A
C137        H142   1.072       .  S
C138        C139   1.427       .  A
C139        C140   1.434       .  A
C139        H143   1.060       .  S
C140        C141   1.430       .  A
C141        H144   1.048       .  S
O145       Ni153   1.941       .  S
O145        C155   1.287       .  A
O146       Ni153   1.949       .  S
O146        C156   1.286   1_455  A
O147       Ni153   1.925       .  S
O147        C157   1.285       .  A
O148       Ni153   1.937       .  S
O148        C158   1.282   1_455  A
O149       Ni154   1.887       .  S
O149        C158   1.272   1_455  A
O150       Ni154   1.912       .  S
O150        C157   1.281       .  A
O151       Ni154   1.893       .  S
O151        C156   1.278   1_455  A
O152       Ni154   1.867       .  S
O152        C155   1.270       .  A
Ni153      Ni154   2.379       .  S
C155        C730   1.493       .  S
C156       C1069   1.491       .  S
C157        C922   1.500       .  S
C158        C349   1.478       .  S
O159       Ni167   1.911       .  S
O159        C169   1.280       .  A
O160       Ni167   1.895   1_565  S
O160        C170   1.276       .  A
O161       Ni167   1.888       .  S
O161        C171   1.274       .  A
O162       Ni167   1.910   1_565  S
O162        C172   1.279       .  A
O163       Ni168   1.958   1_565  S
O163        C172   1.291       .  A
O164       Ni168   1.964       .  S
O164        C171   1.291       .  A
O165       Ni168   1.939   1_565  S
O165        C170   1.281       .  A
O166       Ni168   1.937       .  S
O166        C169   1.285       .  A
Ni167      Ni168   2.377       .  S
C169        C410   1.483       .  S
C170        C861   1.512       .  S
C171        C989   1.487       .  S
C172        C365   1.509       .  S
O173       Ni181   1.897       .  S
O173        C183   1.274   1_554  A
O174       Ni181   1.897       .  S
O174        C184   1.274       .  A
O175       Ni181   1.870       .  S
O175        C185   1.269   1_554  A
O176       Ni181   1.864       .  S
O176        C186   1.265       .  A
O177       Ni182   1.943       .  S
O177        C186   1.288       .  A
O178       Ni182   1.940       .  S
O178        C185   1.289   1_554  A
O179       Ni182   1.931       .  S
O179        C184   1.284       .  A
O180       Ni182   1.931       .  S
O180        C183   1.285   1_554  A
Ni181      Ni182   2.376       .  S
C183       C1053   1.501       .  S
C184        C797   1.503       .  S
C185        C877   1.490       .  S
C186        C477   1.497       .  S
O187       Ni195   1.918       .  S
O187        C197   1.287       .  A
O188       Ni195   1.925   1_565  S
O188        C198   1.285       .  A
O189       Ni195   1.915       .  S
O189        C199   1.279       .  A
O190       Ni195   1.904   1_565  S
O190        C200   1.276       .  A
O191       Ni196   1.906       .  S
O191        C200   1.279       .  A
O192       Ni196   1.918   1_545  S
O192        C199   1.283       .  A
O193       Ni196   1.858       .  S
O193        C198   1.264       .  A
O194       Ni196   1.850   1_545  S
O194        C197   1.261       .  A
Ni195      Ni196   2.387   1_545  S
C197        C522   1.460       .  S
C198        C845   1.468       .  S
C199        C957   1.501       .  S
C200        C749   1.460       .  S
O201       Ni209   1.895       .  S
O201        C211   1.274       .  A
O202       Ni209   1.900       .  S
O202        C212   1.280   1_455  A
O203       Ni209   1.842       .  S
O203        C213   1.260       .  A
O204       Ni209   1.855       .  S
O204        C214   1.263   1_455  A
O205       Ni210   1.955       .  S
O205        C214   1.294   1_455  A
O206       Ni210   1.955       .  S
O206        C213   1.285       .  A
O207       Ni210   1.921       .  S
O207        C212   1.280   1_455  A
O208       Ni210   1.934       .  S
O208        C211   1.284       .  A
Ni209      Ni210   2.380       .  S
C211        C509   1.479       .  S
C212       C1021   1.491       .  S
C213        C893   1.483       .  S
C214        C429   1.480       .  S
O215       Ni223   1.946       .  S
O215        C225   1.294       .  A
O216       Ni223   1.960       .  S
O216        C226   1.294   1_554  A
O217       Ni223   1.906       .  S
O217        C227   1.274       .  A
O218       Ni223   1.895       .  S
O218        C228   1.269   1_554  A
O219       Ni224   1.939       .  S
O219        C228   1.287   1_554  A
O220       Ni224   1.928       .  S
O220        C227   1.289       .  A
O221       Ni224   1.866       .  S
O221        C226   1.261   1_554  A
O222       Ni224   1.852       .  S
O222        C225   1.259       .  A
Ni223      Ni224   2.383       .  S
C225        C762   1.472       .  S
C226        C938   1.495       .  S
C227        C666   1.480       .  S
C228        C826   1.481       .  S
O229       Ni237   1.925       .  S
O229        C239   1.281       .  A
O230       Ni237   1.939       .  S
O230        C240   1.283   1_554  A
O231       Ni237   1.938       .  S
O231        C241   1.284       .  A
O232       Ni237   1.929       .  S
O232        C242   1.282   1_554  A
O233       Ni238   1.938       .  S
O233        C242   1.284   1_554  A
O234       Ni238   1.932       .  S
O234        C241   1.282       .  A
O235       Ni238   1.938       .  S
O235        C240   1.286   1_554  A
O236       Ni238   1.936       .  S
O236        C239   1.284       .  A
Ni237      Ni238   2.374       .  S
C239        C445   1.496       .  S
C240       C1005   1.522       .  S
C241        C618   1.516       .  S
C242       C1037   1.489       .  S
O243       Ni251   1.911       .  S
O243        C253   1.276       .  A
O244       Ni251   1.921   1_565  S
O244        C254   1.282       .  A
O245       Ni251   1.927       .  S
O245        C255   1.286       .  A
O246       Ni251   1.919   1_565  S
O246        C256   1.287       .  A
O247       Ni252   1.857   1_565  S
O247        C256   1.264       .  A
O248       Ni252   1.874       .  S
O248        C255   1.269       .  A
O249       Ni252   1.905   1_565  S
O249        C254   1.280       .  A
O250       Ni252   1.882       .  S
O250        C253   1.278       .  A
Ni251      Ni252   2.387       .  S
C253        C381   1.486       .  S
C254        C813   1.499       .  S
C255        C605   1.496       .  S
C256        C317   1.453       .  S
O257       Ni265   1.906       .  S
O257        C267   1.278       .  A
O258       Ni265   1.912       .  S
O258        C268   1.278   1_455  A
O259       Ni265   1.858       .  S
O259        C269   1.276       .  A
O260       Ni265   1.878       .  S
O260        C270   1.268   1_455  A
O261       Ni266   1.946       .  S
O261        C270   1.291   1_455  A
O262       Ni266   1.944       .  S
O262        C269   1.283       .  A
O263       Ni266   1.935       .  S
O263        C268   1.286   1_455  A
O264       Ni266   1.955       .  S
O264        C267   1.289       .  A
Ni265      Ni266   2.378       .  S
C267        C701   1.495       .  S
C268        C493   1.511       .  S
C269        C685   1.479       .  S
C270        C333   1.509       .  S
O271       Ni279   1.906       .  S
O271        C281   1.278       .  A
O272       Ni279   1.918       .  S
O272        C282   1.278   1_455  A
O273       Ni279   1.932       .  S
O273        C283   1.291       .  A
O274       Ni279   1.931       .  S
O274        C284   1.287   1_455  A
O275       Ni280   1.878       .  S
O275        C284   1.268   1_455  A
O276       Ni280   1.862       .  S
O276        C283   1.265       .  A
O277       Ni280   1.916       .  S
O277        C282   1.281   1_455  A
O278       Ni280   1.896       .  S
O278        C281   1.280       .  A
Ni279      Ni280   2.385       .  S
C281        C554   1.495       .  S
C282        C461   1.482       .  S
C283        C634   1.481       .  S
C284        C397   1.481       .  S
O285       Ni293   1.915   1_545  S
O285        C295   1.278       .  A
O286       Ni293   1.857       .  S
O286        C296   1.266       .  A
O287       Ni293   1.883   1_545  S
O287        C297   1.264       .  A
O288       Ni293   1.904       .  S
O288        C298   1.281       .  A
O289       Ni294   1.939       .  S
O289        C298   1.287       .  A
O290       Ni294   1.965   1_545  S
O290        C297   1.281       .  A
O291       Ni294   1.986       .  S
O291        C296   1.297       .  A
O292       Ni294   1.958   1_545  S
O292        C295   1.292       .  A
Ni293      Ni294   2.355       .  S
C295        C541   1.518       .  S
C296        C781   1.496       .  S
C297        C589   1.522       .  S
C298        C717   1.508       .  S
O299       Ni307   1.921       .  S
O299        C309   1.281       .  A
O300       Ni307   1.922       .  S
O300        C310   1.278   1_554  A
O301       Ni307   1.934       .  S
O301        C311   1.287       .  A
O302       Ni307   1.933       .  S
O302        C312   1.286   1_554  A
O303       Ni308   1.871       .  S
O303        C312   1.262   1_554  A
O304       Ni308   1.889       .  S
O304        C311   1.272       .  A
O305       Ni308   1.921       .  S
O305        C310   1.282   1_554  A
O306       Ni308   1.891       .  S
O306        C309   1.272       .  A
Ni307      Ni308   2.383       .  S
C309        C650   1.487       .  S
C310        C973   1.482       .  S
C311        C573   1.475       .  S
C312        C909   1.472       .  S
C313        C314   1.394       .  A
C313        C318   1.397       .  A
C313        H320   1.078       .  S
C314        C315   1.435       .  A
C315        C316   1.386       .  A
C315        C322   1.474       .  S
C316        C317   1.377       .  A
C316        H321   1.086       .  S
C317        C318   1.419       .  A
C318        C319   1.512       .  S
C319        H323   1.108       .  S
C319        H324   1.079       .  S
C319        H325   1.098       .  S
C322        H326   1.110       .  S
C322        H327   1.064       .  S
C322        H328   1.110       .  S
C329        C330   1.382       .  A
C329        C334   1.402       .  A
C329        H336   1.067       .  S
C330        C331   1.438       .  A
C331        C332   1.417       .  A
C331        C338   1.509       .  S
C332        C333   1.407       .  A
C332        H337   1.083       .  S
C333        C334   1.432       .  A
C334        C335   1.501       .  S
C335        H339   1.084       .  S
C335        H340   1.094       .  S
C335        H341   1.107       .  S
C338        H342   1.110       .  S
C338        H343   1.099       .  S
C338        H344   1.105       .  S
C345        C346   1.424       .  A
C345        C350   1.408       .  A
C345        H352   1.051       .  S
C346        C347   1.454       .  A
C347        C348   1.416       .  A
C347        C354   1.499       .  S
C348        C349   1.389       .  A
C348        H353   1.085       .  S
C349        C350   1.393       .  A
C350        C351   1.507       .  S
C351        H355   1.110       .  S
C351        H356   1.109   1_655  S
C351        H357   1.110       .  S
C354        H358   1.096       .  S
C354        H359   1.106       .  S
C354        H360   1.112       .  S
C361        C362   1.417       .  A
C361        C366   1.414       .  A
C361        H368   1.070       .  S
C362        C363   1.396       .  A
C363        C364   1.407       .  A
C363        C370   1.522       .  S
C364        C365   1.411       .  A
C364        H369   1.059       .  S
C365        C366   1.406       .  A
C366        C367   1.503       .  S
C367        H371   1.111       .  S
C367        H372   1.109       .  S
C367        H373   1.110       .  S
C370        H374   1.091       .  S
C370        H375   1.097       .  S
C370        H376   1.102       .  S
C377        C378   1.401       .  A
C377        C382   1.418       .  A
C377        H384   1.076       .  S
C378        C379   1.393       .  A
C379        C380   1.384       .  A
C379        C386   1.484       .  S
C380        C381   1.400       .  A
C380        H385   1.083       .  S
C381        C382   1.427       .  A
C382        C383   1.508       .  S
C383        H387   1.110       .  S
C383        H388   1.105       .  S
C383        H389   1.110       .  S
C386        H390   1.108       .  S
C386        H391   1.097       .  S
C386        H392   1.106       .  S
C393        C394   1.372       .  A
C393        C398   1.388       .  A
C393        H400   1.078       .  S
C394        C395   1.418       .  A
C395        C396   1.405       .  A
C395        C402   1.501       .  S
C396        C397   1.396       .  A
C396        H401   1.084       .  S
C397        C398   1.426       .  A
C398        C399   1.490       .  S
C399        H403   1.107       .  S
C399        H404   1.087       .  S
C399        H405   1.107       .  S
C402        H406   1.085       .  S
C402        H407   1.107       .  S
C402        H408   1.110       .  S
C409        C410   1.381       .  A
C409        C414   1.407       .  A
C409        H416   1.084       .  S
C410        C411   1.401       .  A
C411        C412   1.422       .  A
C411        C418   1.502       .  S
C412        C413   1.414       .  A
C412        H417   1.065       .  S
C413        C414   1.439       .  A
C414        C415   1.474       .  S
C415        H419   1.109       .  S
C415        H420   1.084       .  S
C415        H421   1.104       .  S
C418        H422   1.109       .  S
C418        H423   1.107       .  S
C418        H424   1.108       .  S
C425        C426   1.412       .  A
C425        C430   1.396       .  A
C425        H432   1.053       .  S
C426        C427   1.385       .  A
C427        C428   1.409       .  A
C427        C434   1.512       .  S
C428        C429   1.423       .  A
C428        H433   1.076       .  S
C429        C430   1.392       .  A
C430        C431   1.505       .  S
C431        H435   1.108       .  S
C431        H436   1.110       .  S
C431        H437   1.110       .  S
C434        H438   1.090       .  S
C434        H439   1.092       .  S
C434        H440   1.105       .  S
C441        C442   1.440       .  A
C441        C446   1.398       .  A
C441        H448   1.053       .  S
C442        C443   1.468       .  A
C443        C444   1.425       .  A
C443        C450   1.493       .  S
C444        C445   1.405       .  A
C444        H449   1.079       .  S
C445        C446   1.400       .  A
C446        C447   1.500       .  S
C447        H451   1.108       .  S
C447        H452   1.110       .  S
C447        H453   1.111       .  S
C450        H454   1.087       .  S
C450        H455   1.092       .  S
C450        H456   1.111       .  S
C457        C458   1.411       .  A
C457        C462   1.422       .  A
C457        H464   1.076       .  S
C458        C459   1.426       .  A
C459        C460   1.399       .  A
C459        C466   1.487       .  S
C460        C461   1.384       .  A
C460        H465   1.084       .  S
C461        C462   1.414       .  A
C462        C463   1.497       .  S
C463        H467   1.106       .  S
C463        H468   1.102       .  S
C463        H469   1.110       .  S
C466        H470   1.084       .  S
C466        H471   1.110       .  S
C466        H472   1.111       .  S
C473        C474   1.388       .  A
C473        C478   1.404       .  A
C473        H480   1.080       .  S
C474        C475   1.439       .  A
C475        C476   1.411       .  A
C475        C482   1.514       .  S
C476        C477   1.399       .  A
C476        H481   1.084       .  S
C477        C478   1.427       .  A
C478        C479   1.494       .  S
C479        H483   1.104       .  S
C479        H484   1.098       .  S
C479        H485   1.086       .  S
C482        H486   1.111       .  S
C482        H487   1.095       .  S
C482        H488   1.095       .  S
C489        C490   1.411       .  A
C489        C494   1.423       .  A
C489        H496   1.083       .  S
C490        C491   1.446       .  A
C491        C492   1.407       .  A
C491        C498   1.490       .  S
C492        C493   1.389       .  A
C492        H497   1.085       .  S
C493        C494   1.421       .  A
C494        C495   1.498       .  S
C495        H499   1.097       .  S
C495        H500   1.092       .  S
C495        H501   1.102       .  S
C498        H502   1.107       .  S
C498        H503   1.109       .  S
C498        H504   1.087       .  S
C505        C506   1.427       .  A
C505        C510   1.407       .  A
C505        H512   1.070       .  S
C506        C507   1.445       .  A
C507        C508   1.417       .  A
C507        C514   1.495       .  S
C508        C509   1.396       .  A
C508        H513   1.084       .  S
C509        C510   1.391       .  A
C510        C511   1.506       .  S
C511        H515   1.110       .  S
C511        H516   1.107       .  S
C511        H517   1.110       .  S
C514        H518   1.094       .  S
C514        H519   1.105       .  S
C514        H520   1.111       .  S
C521        C522   1.379       .  A
C521        C526   1.382       .  A
C521        H528   1.087       .  S
C522        C523   1.426       .  A
C523        C524   1.403       .  A
C523        C530   1.511       .  S
C524        C525   1.389       .  A
C524        H529   1.068       .  S
C525        C526   1.432       .  A
C526        C527   1.477       .  S
C527        H531   1.115       .  S
C527        H532   1.084       .  S
C527        H533   1.101       .  S
C530        H534   1.107       .  S
C530        H535   1.094       .  S
C530        H536   1.102       .  S
C537        C538   1.408       .  A
C537        C542   1.415       .  A
C537        H544   1.077       .  S
C538        C539   1.402       .  A
C539        C540   1.411       .  A
C539        C546   1.508       .  S
C540        C541   1.420       .  A
C540        H545   1.080       .  S
C541        C542   1.417       .  A
C542        C543   1.505       .  S
C543        H547   1.111       .  S
C543        H548   1.110       .  S
C543        H549   1.110       .  S
C546        H550   1.108       .  S
C546        H551   1.092       .  S
C546        H552   1.089       .  S
C553        C554   1.409       .  A
C553        C558   1.413       .  A
C553        H560   1.084       .  S
C554        C555   1.407       .  A
C555        C556   1.395       .  A
C555        C562   1.467       .  S
C556        C557   1.387       .  A
C556        H561   1.088       .  S
C557        C558   1.437       .  A
C558        C559   1.506       .  S
C559        H563   1.110       .  S
C559        H564   1.091       .  S
C559        H565   1.110       .  S
C562        H566   1.090       .  S
C562        H567   1.096       .  S
C562        H568   1.102       .  S
C569        C570   1.407       .  A
C569        C574   1.420       .  A
C569        H576   1.062       .  S
C570        C571   1.430       .  A
C571        C572   1.401       .  A
C571        C578   1.488       .  S
C572        C573   1.392       .  A
C572        H577   1.084       .  S
C573        C574   1.403       .  A
C574        C575   1.505       .  S
C575        H579   1.101       .  S
C575        H580   1.111       .  S
C575        H581   1.103       .  S
C578        H582   1.101       .  S
C578        H583   1.105       .  S
C578        H584   1.112       .  S
C585        C586   1.387       .  A
C585        C590   1.395       .  A
C585        H592   1.030       .  S
C586        C587   1.461       .  A
C587        C588   1.446       .  A
C587        C594   1.485       .  S
C588        C589   1.402       .  A
C588        H593   1.084       .  S
C589        C590   1.403       .  A
C590        C591   1.497       .  S
C591        H595   1.044       .  S
C591        H596   1.110       .  S
C591        H597   1.111       .  S
C594        H598   1.093       .  S
C594        H599   1.095       .  S
C594        H600   1.111       .  S
C601        C602   1.406       .  A
C601        C606   1.417       .  A
C601        H608   1.079       .  S
C602        C603   1.430       .  A
C603        C604   1.395       .  A
C603        C610   1.473       .  S
C604        C605   1.386       .  A
C604        H609   1.085       .  S
C605        C606   1.427       .  A
C606        C607   1.514       .  S
C607        H611   1.090       .  S
C607        H612   1.101       .  S
C607        H613   1.106       .  S
C610        H614   1.110       .  S
C610        H615   1.071       .  S
C610        H616   1.111       .  S
C617        C618   1.410       .  A
C617        C622   1.419       .  A
C617        H624   1.071       .  S
C618        C619   1.421       .  A
C619        C620   1.411       .  A
C619        C626   1.508       .  S
C620        C621   1.402       .  A
C620        H625   1.070       .  S
C621        C622   1.391       .  A
C622        C623   1.510       .  S
C623        H627   1.105       .  S
C623        H628   1.109       .  S
C623        H629   1.107       .  S
C626        H630   1.103       .  S
C626        H631   1.110       .  S
C626        H632   1.110       .  S
C633        C634   1.375       .  A
C633        C638   1.383       .  A
C633        H640   1.086       .  S
C634        C635   1.431       .  A
C635        C636   1.419       .  A
C635        C642   1.514       .  S
C636        C637   1.407       .  A
C636        H641   1.085       .  S
C637        C638   1.453       .  A
C638        C639   1.506       .  S
C639        H643   1.113       .  S
C639        H644   1.096       .  S
C639        H645   1.097       .  S
C642        H646   1.100       .  S
C642        H647   1.105       .  S
C642        H648   1.109       .  S
C649        C650   1.401       .  A
C649        C654   1.405       .  A
C649        H656   1.082       .  S
C650        C651   1.417       .  A
C651        C652   1.406       .  A
C651        C658   1.497       .  S
C652        C653   1.394       .  A
C652        H657   1.083       .  S
C653        C654   1.420       .  A
C654        C655   1.502       .  S
C655        H659   1.110       .  S
C655        H660   1.070       .  S
C655        H661   1.101       .  S
C658        H662   1.103       .  S
C658        H663   1.093       .  S
C658        H664   1.092       .  S
C665        C666   1.377       .  A
C665        C670   1.394       .  A
C665        H672   1.085       .  S
C666        C667   1.424       .  A
C667        C668   1.425       .  A
C667        C674   1.505       .  S
C668        C669   1.412       .  A
C668        H673   1.074       .  S
C669        C670   1.425       .  A
C670        C671   1.459       .  S
C671        H675   1.110       .  S
C671        H676   1.111       .  S
C671        H677   1.088       .  S
C674        H678   1.110       .  S
C674        H679   1.093       .  S
C674        H680   1.111       .  S
C681        C682   1.396       .  A
C681        C686   1.395       .  A
C681        H688   1.047       .  S
C682        C683   1.456       .  A
C683        C684   1.425       .  A
C683        C690   1.483       .  S
C684        C685   1.387       .  A
C684        H689   1.082       .  S
C685        C686   1.381       .  A
C686        C687   1.503       .  S
C687        H691   1.111       .  S
C687        H692   1.100       .  S
C687        H693   1.099       .  S
C690        H694   1.095       .  S
C690        H695   1.094       .  S
C690        H696   1.109       .  S
C697        C698   1.419       .  A
C697        C702   1.422       .  A
C697        H704   1.078       .  S
C698        C699   1.456       .  A
C699        C700   1.408       .  A
C699        C706   1.498       .  S
C700        C701   1.381       .  A
C700        H705   1.085       .  S
C701        C702   1.406       .  A
C702        C703   1.494       .  S
C703        H707   1.105       .  S
C703        H708   1.110       .  S
C703        H709   1.102       .  S
C706        H710   1.088       .  S
C706        H711   1.102       .  S
C706        H712   1.108       .  S
C713        C714   1.411       .  A
C713        C718   1.404       .  A
C713        H720   1.074       .  S
C714        C715   1.386       .  A
C715        C716   1.413       .  A
C715        C722   1.506       .  S
C716        C717   1.423       .  A
C716        H721   1.078       .  S
C717        C718   1.428       .  A
C718        C719   1.519       .  S
C719        H723   1.111       .  S
C719        H724   1.103       .  S
C719        H725   1.103       .  S
C722        H726   1.105       .  S
C722        H727   1.106       .  S
C722        H728   1.106       .  S
C729        C730   1.413       .  A
C729        C734   1.397       .  A
C729        H736   1.083       .  S
C730        C731   1.419       .  A
C731        C732   1.409       .  A
C731        C738   1.506       .  S
C732        C733   1.409       .  A
C732        H737   1.064       .  S
C733        C734   1.424       .  A
C734        C735   1.516       .  S
C735        H739   1.109       .  S
C735        H740   1.108       .  S
C735        H741   1.108       .  S
C738        H742   1.108       .  S
C738        H743   1.110       .  S
C738        H744   1.111       .  S
C745        C746   1.422       .  A
C745        C750   1.400       .  A
C745        H752   1.062       .  S
C746        C747   1.448       .  A
C747        C748   1.413       .  A
C747        C754   1.502       .  S
C748        C749   1.392       .  A
C748        H753   1.085       .  S
C749        C750   1.375       .  A
C750        C751   1.502       .  S
C751        H755   1.111       .  S
C751        H756   1.109       .  S
C751        H757   1.097       .  S
C754        H758   1.095       .  S
C754        H759   1.081       .  S
C754        H760   1.112       .  S
C761        C762   1.372       .  A
C761        C766   1.388       .  A
C761        H768   1.087       .  S
C762        C763   1.432       .  A
C763        C764   1.411       .  A
C763        C770   1.517       .  S
C764        C765   1.395       .  A
C764        H769   1.083       .  S
C765        C766   1.426       .  A
C766        C767   1.464       .  S
C767        H771   1.112       .  S
C767        H772   1.108       .  S
C767        H773   1.085       .  S
C770        H774   1.075       .  S
C770        H775   1.102       .  S
C770        H776   1.096       .  S
C777        C778   1.427       .  A
C777        C782   1.423       .  A
C777        H784   1.069       .  S
C778        C779   1.464       .  A
C779        C780   1.405       .  A
C779        C786   1.503       .  S
C780        C781   1.386       .  A
C780        H785   1.087       .  S
C781        C782   1.402       .  A
C782        C783   1.495       .  S
C783        H787   1.111       .  S
C783        H788   1.110       .  S
C783        H789   1.102       .  S
C786        H790   1.072       .  S
C786        H791   1.110       .  S
C786        H792   1.101       .  S
C793        C794   1.395       .  A
C793        C798   1.409       .  A
C793        H800   1.084       .  S
C794        C795   1.437       .  A
C795        C796   1.408       .  A
C795        C802   1.477       .  S
C796        C797   1.390       .  A
C796        H801   1.085       .  S
C797        C798   1.420       .  A
C798        C799   1.490       .  S
C799        H803   1.093       .  S
C799        H804   1.105       .  S
C799        H805   1.083       .  S
C802        H806   1.110       .  S
C802        H807   1.075       .  S
C802        H808   1.109       .  S
C809        C810   1.411       .  A
C809        C814   1.407       .  A
C809        H816   1.074       .  S
C810        C811   1.448       .  A
C811        C812   1.416       .  A
C811        C818   1.508       .  S
C812        C813   1.405       .  A
C812        H817   1.085       .  S
C813        C814   1.409       .  A
C814        C815   1.499       .  S
C815        H819   1.106       .  S
C815        H820   1.105       .  S
C815        H821   1.108       .  S
C818        H822   1.110       .  S
C818        H823   1.087       .  S
C818        H824   1.106       .  S
C825        C826   1.374       .  A
C825        C830   1.398       .  A
C825        H832   1.085       .  S
C826        C827   1.416       .  A
C827        C828   1.420       .  A
C827        C834   1.503       .  S
C828        C829   1.412       .  A
C828        H833   1.079       .  S
C829        C830   1.448       .  A
C830        C831   1.495       .  S
C831        H835   1.094       .  S
C831        H836   1.108       .  S
C831        H837   1.094       .  S
C834        H838   1.110       .  S
C834        H839   1.097       .  S
C834        H840   1.105       .  S
C841        C842   1.399       .  A
C841        C846   1.401       .  A
C841        H848   1.081       .  S
C842        C843   1.433       .  A
C843        C844   1.394       .  A
C843        C850   1.469       .  S
C844        C845   1.373       .  A
C844        H849   1.085       .  S
C845        C846   1.423       .  A
C846        C847   1.504       .  S
C847        H851   1.092       .  S
C847        H852   1.102       .  S
C847        H853   1.086       .  S
C850        H854   1.098       .  S
C850        H855   1.089       .  S
C850        H856   1.112       .  S
C857        C858   1.401       .  A
C857        C862   1.398       .  A
C857        H864   1.058       .  S
C858        C859   1.443       .  A
C859        C860   1.432       .  A
C859        C866   1.496       .  S
C860        C861   1.407       .  A
C860        H865   1.083       .  S
C861        C862   1.410       .  A
C862        C863   1.510       .  S
C863        H867   1.082       .  S
C863        H868   1.105       .  S
C863        H869   1.105       .  S
C866        H870   1.102       .  S
C866        H871   1.094       .  S
C866        H872   1.111       .  S
C873        C874   1.412       .  A
C873        C878   1.408       .  A
C873        H880   1.070       .  S
C874        C875   1.396       .  A
C875        C876   1.397       .  A
C875        C882   1.491       .  S
C876        C877   1.416       .  A
C876        H881   1.081       .  S
C877        C878   1.416       .  A
C878        C879   1.509       .  S
C879        H883   1.110       .  S
C879        H884   1.106       .  S
C879        H885   1.110       .  S
C882        H886   1.110       .  S
C882        H887   1.099       .  S
C882        H888   1.102       .  S
C889        C890   1.401       .  A
C889        C894   1.402       .  A
C889        H896   1.064       .  S
C890        C891   1.454       .  A
C891        C892   1.420       .  A
C891        C898   1.538       .  S
C892        C893   1.408       .  A
C892        H897   1.084       .  S
C893        C894   1.420       .  A
C894        C895   1.520       .  S
C895        H899   1.095       .  S
C895        H900   1.105       .  S
C895        H901   1.099       .  S
C898        H902   1.076       .  S
C898        H903   1.113       .  S
C898        H904   1.112       .  S
C905        C906   1.386       .  A
C905        C910   1.404       .  A
C905        H912   1.068       .  S
C906        C907   1.426       .  A
C907        C908   1.397       .  A
C907        C914   1.455       .  S
C908        C909   1.376       .  A
C908        H913   1.086       .  S
C909        C910   1.420       .  A
C910        C911   1.494       .  S
C911        H915   1.086       .  S
C911        H916   1.096       .  S
C911        H917   1.080       .  S
C914        H918   1.107       .  S
C914        H919   1.088       .  S
C914        H920   1.108       .  S
C921        C922   1.418       .  A
C921        C926   1.412       .  A
C921        H928   1.078       .  S
C922        C923   1.405       .  A
C923        C924   1.400       .  A
C923        C930   1.509       .  S
C924        C925   1.399       .  A
C924        H929   1.069       .  S
C925        C926   1.400       .  A
C926        C927   1.520       .  S
C927        H931   1.108       .  S
C927        H932   1.108       .  S
C927        H933   1.093       .  S
C930        H934   1.110       .  S
C930        H935   1.109       .  S
C930        H936   1.111       .  S
C937        C938   1.399       .  A
C937        C942   1.410       .  A
C937        H944   1.084       .  S
C938        C939   1.435       .  A
C939        C940   1.393       .  A
C939        C946   1.510       .  S
C940        C941   1.378       .  A
C940        H945   1.082       .  S
C941        C942   1.432       .  A
C942        C943   1.508       .  S
C943        H947   1.110       .  S
C943        H948   1.092       .  S
C943        H949   1.103       .  S
C946        H950   1.087       .  S
C946        H951   1.106       .  S
C946        H952   1.101       .  S
C953        C954   1.410       .  A
C953        C958   1.416       .  A
C953        H960   1.083       .  S
C954        C955   1.389       .  A
C955        C956   1.398       .  A
C955        C962   1.470       .  S
C956        C957   1.404       .  A
C956        H961   1.082       .  S
C957        C958   1.430       .  A
C958        C959   1.506       .  S
C959        H963   1.111       .  S
C959        H964   1.110       .  S
C959        H965   1.109       .  S
C962        H966   1.104       .  S
C962        H967   1.111       .  S
C962        H968   1.106       .  S
C969        C970   1.414       .  A
C969        C974   1.420       .  A
C969        H976   1.069       .  S
C970        C971   1.429       .  A
C971        C972   1.395       .  A
C971        C978   1.482       .  S
C972        C973   1.383       .  A
C972        H977   1.085       .  S
C973        C974   1.418       .  A
C974        C975   1.504       .  S
C975        H979   1.111       .  S
C975        H980   1.100       .  S
C975        H981   1.110       .  S
C978        H982   1.111       .  S
C978        H983   1.110       .  S
C978        H984   1.076       .  S
C985        C986   1.426       .  A
C985        C990   1.401       .  A
C985        H992   1.057       .  S
C986        C987   1.456       .  A
C987        C988   1.422       .  A
C987        C994   1.520       .  S
C988        C989   1.391       .  A
C988        H993   1.069       .  S
C989        C990   1.386       .  A
C990        C991   1.508       .  S
C991        H995   1.108       .  S
C991        H996   1.110       .  S
C991        H997   1.110       .  S
C994        H998   1.112       .  S
C994        H999   1.086       .  S
C994       H1000   1.101       .  S
C1001      C1002   1.405       .  A
C1001      C1006   1.407       .  A
C1001      H1008   1.071       .  S
C1002      C1003   1.396       .  A
C1003      C1004   1.429       .  A
C1003      C1010   1.513       .  S
C1004      C1005   1.420       .  A
C1004      H1009   1.081       .  S
C1005      C1006   1.424       .  A
C1006      C1007   1.510       .  S
C1007      H1011   1.111       .  S
C1007      H1012   1.110       .  S
C1007      H1013   1.109       .  S
C1010      H1014   1.090       .  S
C1010      H1015   1.103       .  S
C1010      H1016   1.095       .  S
C1017      C1018   1.401       .  A
C1017      C1022   1.386       .  A
C1017      H1024   1.050       .  S
C1018      C1019   1.440       .  A
C1019      C1020   1.423       .  A
C1019      C1026   1.507       .  S
C1020      C1021   1.410       .  A
C1020      H1025   1.084       .  S
C1021      C1022   1.402       .  A
C1022      C1023   1.516       .  S
C1023      H1027   1.104       .  S
C1023      H1028   1.106       .  S
C1023      H1029   1.108       .  S
C1026      H1030   1.088       .  S
C1026      H1031   1.110       .  S
C1026      H1032   1.111       .  S
C1033      C1034   1.421       .  A
C1033      C1038   1.428       .  A
C1033      H1040   1.063       .  S
C1034      C1035   1.381       .  A
C1035      C1036   1.393       .  A
C1035      C1042   1.433       .  S
C1036      C1037   1.382       .  A
C1036      H1041   1.081       .  S
C1037      C1038   1.411       .  A
C1038      C1039   1.500       .  S
C1039      H1043   1.111       .  S
C1039      H1044   1.111       .  S
C1039      H1045   1.109       .  S
C1042      H1046   1.095       .  S
C1042      H1047   1.092       .  S
C1042      H1048   1.086       .  S
C1049      C1050   1.395       .  A
C1049      C1054   1.404       .  A
C1049      H1056   1.082       .  S
C1050      C1051   1.420       .  A
C1051      C1052   1.412       .  A
C1051      C1058   1.500       .  S
C1052      C1053   1.407       .  A
C1052      H1057   1.084       .  S
C1053      C1054   1.425       .  A
C1054      C1055   1.508       .  S
C1055      H1059   1.096       .  S
C1055      H1060   1.101       .  S
C1055      H1061   1.106       .  S
C1058      H1062   1.103       .  S
C1058      H1063   1.108       .  S
C1058      H1064   1.108       .  S
C1065      C1066   1.415       .  A
C1065      C1070   1.414       .  A
C1065      H1072   1.060       .  S
C1066      C1067   1.407       .  A
C1067      C1068   1.394       .  A
C1067      C1074   1.499       .  S
C1068      C1069   1.397       .  A
C1068      H1073   1.061       .  S
C1069      C1070   1.400       .  A
C1070      C1071   1.502       .  S
C1071      H1075   1.111       .  S
C1071      H1076   1.110       .  S
C1071      H1077   1.110       .  S
C1074      H1078   1.109       .  S
C1074      H1079   1.109       .  S
C1074      H1080   1.087       .  S
