geometry optimzed in LAMMPS
_audit_creation_date              2020-11-30 
_audit_creation_method            'lammps2cif' 
_symmetry_space_group_name_H-M    'P1' 
_symmetry_Int_Tables_number       1 
_symmetry_cell_setting            triclinic 
loop_ 
_symmetry_equiv_pos_as_xyz 
  x,y,z 
_cell_length_a                    47.71569486 
_cell_length_b                    25.19921848305566 
_cell_length_c                    29.578647865363617 
_cell_angle_alpha                 91.77557136970009 
_cell_angle_beta                  90.878749133105 
_cell_angle_gamma                 89.58931492868443 
loop_ 
_atom_site_label 
_atom_site_type_symbol 
_atom_site_fract_x 
_atom_site_fract_y 
_atom_site_fract_z 
_atom_site_charge 
C1          C  0.35527424  0.73396872  0.99419938     0.02700
C2          C  0.34959945  0.70234349  0.45513148    -0.13500
C3          C  0.32920724  0.66227854  0.45560654     0.00400
C4          C  0.31636204  0.65161689  0.49669181    -0.12000
C5          C  0.32393976  0.67902469  0.03672528     0.02700
C6          C  0.34294940  0.72094378  0.03521456    -0.11400
H7          H  0.35962749  0.71138635  0.42371553     0.08300
H8          H  0.29911796  0.62396442  0.49739929     0.05800
H9          H  0.34710187  0.74491204  0.06560486     0.05700
C10         C  0.11968372  0.86545582  0.99231566     0.02700
C11         C  0.13549733  0.85709935  0.45267922    -0.13500
C12         C  0.15596487  0.81674001  0.45008389     0.00200
C13         C  0.16214204  0.78768228  0.48867883    -0.12000
C14         C  0.14710849  0.79636603  0.02851714     0.02700
C15         C  0.12529048  0.83337841  0.02950657    -0.11400
H16         H  0.13105687  0.87990121  0.42296244     0.08300
H17         H  0.17725147  0.75538007  0.48683507     0.05800
H18         H  0.11189262  0.83507550  0.05871191     0.05700
C19         C  0.29109448  0.25571022  0.99148737     0.02700
C20         C  0.27548180  0.26601781  0.45164199    -0.13500
C21         C  0.25508791  0.30625682  0.45155394     0.00200
C22         C  0.24859256  0.33282119  0.49195011    -0.12000
C23         C  0.26499666  0.32686205  0.03079162     0.02700
C24         C  0.28667524  0.28881077  0.03036353    -0.11400
H25         H  0.27962623  0.24439974  0.42025553     0.08300
H26         H  0.23239573  0.36320640  0.49192531     0.05800
H27         H  0.30038306  0.28593586  0.05968279     0.05700
N28         N  0.46386426  0.97169944  0.99998931    -0.37000
N29         N  0.41031391  0.02845910  0.99550098    -0.57600
N30         N  0.43987003  0.12875553  0.00167537    -0.37000
N31         N  0.49320540  0.07178757  0.00287317    -0.57600
C32         C  0.44629516  0.93110003  0.98969478     0.26500
C33         C  0.49028109  0.95408315  0.99212743     0.26500
C34         C  0.41380572  0.14641671  0.99107345     0.26500
C35         C  0.45784912  0.16900371  0.99509438     0.26500
C36         C  0.40076859  0.97872646  0.00114259     0.35200
C37         C  0.38800965  0.06155366  0.00021082     0.35200
C38         C  0.01530290  0.03897732  0.00948108     0.35200
C39         C  0.00240866  0.12143917  0.01256152     0.35200
C40         C  0.46169736  0.88688871  0.97570284    -0.22300
C41         C  0.48941383  0.90111899  0.97782908    -0.22300
C42         C  0.41532412  0.19917882  0.97899682    -0.22300
C43         C  0.44307544  0.21295456  0.98059980    -0.22300
C44         C  0.37223908  0.98027070  0.00935377    -0.23400
C45         C  0.36409410  0.03248143  0.00803909    -0.23400
C46         C  0.03869924  0.06819894  0.02291321    -0.23400
C47         C  0.03036476  0.12012457  0.02585191    -0.23400
C48         C  0.41693051  0.93159178  0.99571348    -0.18700
C49         C  0.01517623  0.98368277  0.99982049    -0.18700
C50         C  0.48698015  0.16836554  0.00469581    -0.18700
C51         C  0.38861283  0.11715376  0.99434982    -0.18700
H52         H  0.45383999  0.84796618  0.96587095     0.14200
H53         H  0.00686404  0.87491374  0.97018529     0.14200
H54         H  0.39834884  0.22576795  0.97034285     0.14200
H55         H  0.45130404  0.25154462  0.97306616     0.14200
H56         H  0.35850366  0.94718535  0.01486531     0.12500
H57         H  0.34285112  0.04693072  0.01193572     0.12500
H58         H  0.05983464  0.05437990  0.02924556     0.12500
H59         H  0.04374224  0.15329615  0.03523253     0.12500
H60         H  0.45830703  0.00716018  0.01630626     0.25700
H61         H  0.44473147  0.09351529  0.01733062     0.25700
C62         C  0.05338457  0.36061236  0.00472966     0.02700
C63         C  0.06351973  0.38341291  0.46530439    -0.13500
C64         C  0.08098715  0.42810110  0.46789113     0.00200
C65         C  0.08628442  0.45226280  0.51092440    -0.12000
C66         C  0.07710164  0.42947963  0.05072577     0.02700
C67         C  0.06059448  0.38377495  0.04719154    -0.11400
H68         H  0.05872326  0.36491059  0.43278309     0.08300
H69         H  0.09945342  0.48701899  0.51391888     0.05800
H70         H  0.05409801  0.36520524  0.07783766     0.05700
O71         O  0.17359888  0.63983642  0.30635759    -0.80600
O72         O  0.15531768  0.54812146  0.19910058    -0.80600
O73         O  0.18637923  0.65215287  0.20076526    -0.80600
O74         O  0.17069362  0.45980169  0.30255507    -0.80500
O75         O  0.18670529  0.60090927  0.13903166    -0.80700
O76         O  0.15417897  0.54036199  0.31456349    -0.80600
O77         O  0.16775438  0.46503583  0.20906920    -0.80600
O78         O  0.21224185  0.67542543  0.28596410    -0.80600
C79         C  0.18913258  0.67986668  0.30563214     1.09100
C80         C  0.14982857  0.49893143  0.19549239     1.09000
C81         C  0.17974215  0.64413186  0.15820377     1.09100
C82         C  0.15284684  0.49149863  0.32109097     1.09000
O83         O  0.20809360  0.50480695  0.35037562    -0.80600
O84         O  0.23672266  0.58923354  0.17931813    -0.80600
O85         O  0.25238216  0.59425083  0.27534388    -0.80600
O86         O  0.22951156  0.47002173  0.20724384    -0.80600
O87         O  0.20336699  0.50433811  0.15569020    -0.80600
O88         O  0.22887526  0.60318750  0.33919366    -0.80600
O89         O  0.23186715  0.47040636  0.29466938    -0.80500
O90         O  0.24212146  0.66865014  0.21121893    -0.80600
Co91       Co  0.19125446  0.57177738  0.32359978     1.51500
Co92       Co  0.19503696  0.56952778  0.19371236     1.51700
Co93       Co  0.21964617  0.61817864  0.23920221     1.51600
Co94       Co  0.20017827  0.47111017  0.25330729     1.51500
O95         O  0.20033707  0.55182600  0.25848224    -1.42500
C96         C  0.22582525  0.47104743  0.33536120     1.09000
C97         C  0.24887312  0.63507734  0.18076688     1.09100
C98         C  0.25191082  0.60042656  0.31803519     1.09100
C99         C  0.22314902  0.47367241  0.16628649     1.09100
C100        C  0.12467188  0.48046417  0.16869588    -0.06600
C101        C  0.10872948  0.51788033  0.14475227    -0.17700
C102        C  0.09075165  0.50227251  0.10879144     0.10600
C103        C  0.08897155  0.44800358  0.09544547    -0.06500
C104        C  0.10206818  0.41041057  0.12293368    -0.17700
C105        C  0.11907631  0.42581785  0.15993990     0.10700
S106        S  0.07115759  0.55351710  0.08073186    -0.32700
S107        S  0.13343770  0.37327322  0.19343478    -0.32700
H108        H  0.13061323  0.40190316  0.23477726     0.28700
H109        H  0.04949671  0.52022147  0.06438910     0.28700
H110        H  0.11128296  0.55987566  0.15247561     0.19300
H111        H  0.10020018  0.36846392  0.11432405     0.19300
C112        C  0.13418201  0.47392939  0.35749906    -0.06600
C113        C  0.10676628  0.45676803  0.34744826    -0.17700
C114        C  0.08804015  0.44481993  0.38226561     0.10600
C115        C  0.09781677  0.44438126  0.42803493    -0.06500
C116        C  0.12561603  0.45956662  0.43692278    -0.17700
C117        C  0.14250433  0.47899083  0.40359575     0.10700
S118        S  0.05180875  0.43564411  0.36601510    -0.32700
S119        S  0.17255881  0.51524496  0.42451053    -0.32700
H120        H  0.16753055  0.55903456  0.39717425     0.28700
H121        H  0.04098051  0.45744509  0.40652906     0.28700
H122        H  0.09937482  0.45586971  0.31260791     0.19300
H123        H  0.13424031  0.45906449  0.47096999     0.19300
C124        C  0.03594326  0.31166006  0.00245136    -0.06600
C125        C  0.01322547  0.30828838  0.03208258    -0.17700
C126        C  0.99764298  0.26179727  0.03478182     0.10600
C127        C  0.00278674  0.21912634  0.00396761    -0.06500
C128        C  0.02451882  0.22320841  0.47285365    -0.17700
C129        C  0.04221388  0.26731136  0.47359708     0.10700
S130        S  0.47242797  0.25874211  0.07948804    -0.32700
S131        S  0.07420776  0.26295443  0.44153627    -0.32700
H132        H  0.07100932  0.21041584  0.42488996     0.28700
H133        H  0.47517548  0.20390496  0.08600543     0.28700
H134        H  0.00820364  0.34148070  0.05474136     0.19300
H135        H  0.02862383  0.18996527  0.44977022     0.19300
C136        C  0.36146905  0.14666204  0.99098066    -0.06600
C137        C  0.34486590  0.15265654  0.02952521    -0.17700
C138        C  0.32026643  0.18319907  0.02893319     0.10600
C139        C  0.31383717  0.21445756  0.99101760    -0.06500
C140        C  0.33018535  0.20695589  0.45201592    -0.17700
C141        C  0.35265209  0.17105331  0.45082148     0.10700
S142        S  0.29713560  0.17681603  0.07601663    -0.32700
S143        S  0.36976196  0.15935422  0.39738178    -0.32700
H144        H  0.37992933  0.10833091  0.40688350     0.28700
H145        H  0.27237619  0.18404430  0.05041986     0.28700
H146        H  0.35072666  0.13210549  0.05993957     0.19300
H147        H  0.32574978  0.22927636  0.42205123     0.19300
C148        C  0.25993847  0.36521274  0.06895771    -0.06600
C149        C  0.25582633  0.41879666  0.05819933    -0.17700
C150        C  0.24346137  0.45504226  0.08838459     0.10600
C151        C  0.23759284  0.43926170  0.13261595    -0.06500
C152        C  0.24455400  0.38725234  0.14503380    -0.17700
C153        C  0.25450042  0.34960527  0.11332731     0.10700
S154        S  0.23430739  0.51895111  0.06659573    -0.32700
S155        S  0.25685447  0.28181897  0.13051467    -0.32700
H156        H  0.24444096  0.26036365  0.09064106     0.28700
H157        H  0.24096048  0.54692339  0.10646004     0.28700
H158        H  0.26038536  0.43169933  0.02446740     0.19300
H159        H  0.23997571  0.37448392  0.17878173     0.19300
C160        C  0.24573883  0.33228267  0.40983687    -0.06600
C161        C  0.26660142  0.35531944  0.38403167    -0.17700
C162        C  0.26106630  0.40081889  0.35934664     0.10600
C163        C  0.23410464  0.42472903  0.36162781    -0.06500
C164        C  0.21260781  0.39786968  0.38312263    -0.17700
C165        C  0.21793639  0.35104954  0.40569536     0.10700
S166        S  0.28984915  0.42606684  0.32744154    -0.32700
S167        S  0.18886110  0.31861889  0.43134482    -0.32700
H168        H  0.20286190  0.26992622  0.43725784     0.28700
H169        H  0.27995624  0.47769051  0.32115393     0.28700
H170        H  0.28799234  0.34076757  0.38637175     0.19300
H171        H  0.19128741  0.41267718  0.38145598     0.19300
C172        C  0.09492196  0.90201310  0.99325402    -0.06600
C173        C  0.07796091  0.90620583  0.45410388    -0.17700
C174        C  0.05291437  0.93529613  0.45470774     0.10600
C175        C  0.04271263  0.95580969  0.99632558    -0.06500
C176        C  0.05947900  0.95166813  0.03539553    -0.17700
C177        C  0.08621738  0.92896434  0.03351759     0.10700
S178        S  0.03487979  0.94417991  0.40133796    -0.32700
S179        S  0.10875730  0.93995607  0.08246819    -0.32700
H180        H  0.13388570  0.93851150  0.05815575     0.28700
H181        H  0.02210869  0.99294448  0.41331661     0.28700
H182        H  0.08394195  0.88651170  0.42265439     0.19300
H183        H  0.05230464  0.96920931  0.06712240     0.19300
C184        C  0.15128530  0.76022922  0.06624237    -0.06600
C185        C  0.14468834  0.70696778  0.05783805    -0.17700
C186        C  0.15128692  0.66856567  0.08922998     0.10600
C187        C  0.16489979  0.68390464  0.13063634    -0.06500
C188        C  0.16852265  0.73818985  0.14115788    -0.17700
C189        C  0.16234396  0.77653388  0.10900237     0.10700
S190        S  0.14310468  0.60013694  0.07421513    -0.32700
S191        S  0.17085182  0.84464261  0.12351626    -0.32700
H192        H  0.17652690  0.86036024  0.07944590     0.28700
H193        H  0.12728598  0.60944455  0.03469310     0.28700
H194        H  0.13536462  0.69526604  0.02545403     0.19300
H195        H  0.17847139  0.75049756  0.17291870     0.19300
C196        C  0.16666680  0.79684510  0.40570489    -0.06600
C197        C  0.14687906  0.78103093  0.37233232    -0.17700
C198        C  0.15439209  0.74733257  0.33595402     0.10600
C199        C  0.18210636  0.72790679  0.33316218    -0.06500
C200        C  0.20257111  0.74868020  0.36329755    -0.17700
C201        C  0.19519486  0.78332820  0.39923124     0.10700
S202        S  0.12755168  0.72872512  0.29505634    -0.32700
S203        S  0.22283410  0.80674476  0.43692451    -0.32700
H204        H  0.20826801  0.85196837  0.45321407     0.28700
H205        H  0.14598634  0.71931135  0.25893627     0.28700
H206        H  0.12501294  0.79189404  0.37621964     0.19300
H207        H  0.22410332  0.73500399  0.36080479     0.19300
C208        C  0.37204105  0.78330541  0.99208146    -0.06600
C209        C  0.39273528  0.79328797  0.02553206    -0.17700
C210        C  0.40721259  0.84137615  0.02808836     0.10600
C211        C  0.40214282  0.87966604  0.99494251    -0.06500
C212        C  0.38239213  0.86886099  0.46037913    -0.17700
C213        C  0.36654555  0.82242191  0.45959702     0.10700
S214        S  0.43137573  0.85176081  0.07502415    -0.32700
S215        S  0.33814617  0.81833952  0.41871037    -0.32700
H216        H  0.31907808  0.79540294  0.44807937     0.28700
H217        H  0.42752438  0.90704154  0.07922462     0.28700
H218        H  0.39704963  0.76398508  0.05082064     0.19300
H219        H  0.37829631  0.89824651  0.43505869     0.19300
C220        C  0.30858738  0.66852319  0.07847315    -0.06600
C221        C  0.29239914  0.70975264  0.09753530    -0.17700
C222        C  0.27307694  0.70009682  0.13118469     0.10600
C223        C  0.27036023  0.64813111  0.14753957    -0.06500
C224        C  0.28767074  0.60746361  0.13008566    -0.17700
C225        C  0.30668034  0.61702693  0.09579891     0.10700
S226        S  0.25065237  0.75477847  0.14810001    -0.32700
S227        S  0.32765004  0.56177746  0.07532051    -0.32700
H228        H  0.35024387  0.59235649  0.06115253     0.28700
H229        H  0.22615121  0.72448923  0.14361479     0.28700
H230        H  0.29336793  0.74910081  0.08383689     0.19300
H231        H  0.28619115  0.56776570  0.14290268     0.19300
C232        C  0.27794216  0.60970151  0.34418741    -0.06600
C233        C  0.28557264  0.57392941  0.37761588    -0.17700
C234        C  0.30618894  0.58676693  0.41014009     0.10600
C235        C  0.31703656  0.63899671  0.41280274    -0.06500
C236        C  0.31076351  0.67329039  0.37733197    -0.17700
C237        C  0.29198340  0.65855591  0.34257185     0.10700
S238        S  0.31720159  0.53524340  0.44771887    -0.32700
S239        S  0.28391805  0.70642860  0.30036108    -0.32700
H240        H  0.28761090  0.66946046  0.26433528     0.28700
H241        H  0.34313990  0.55842578  0.45955850     0.28700
H242        H  0.27471782  0.53655121  0.37955305     0.19300
H243        H  0.31884392  0.71330302  0.37812222     0.19300
C244        C  0.35527486  0.73397552  0.49421115     0.02700
C245        C  0.34959923  0.70233304  0.95512183    -0.13500
C246        C  0.32920568  0.66227056  0.95559836     0.00400
C247        C  0.31635939  0.65161285  0.99668369    -0.12000
C248        C  0.32394251  0.67902549  0.53673484     0.02700
C249        C  0.34295126  0.72094614  0.53522619    -0.11400
H250        H  0.35962774  0.71137265  0.92370545     0.08300
H251        H  0.29911524  0.62396150  0.99739214     0.05800
H252        H  0.34710399  0.74491174  0.56561765     0.05700
C253        C  0.11969108  0.86546997  0.49231458     0.02700
C254        C  0.13549023  0.85708462  0.95268078    -0.13500
C255        C  0.15595946  0.81672824  0.95008747     0.00200
C256        C  0.16213860  0.78767569  0.98868424    -0.12000
C257        C  0.14711209  0.79637137  0.52851228     0.02700
C258        C  0.12529656  0.83338917  0.52950426    -0.11400
H259        H  0.13104913  0.87988427  0.92296293     0.08300
H260        H  0.17724965  0.75537604  0.98684268     0.05800
H261        H  0.11189911  0.83508721  0.55871000     0.05700
C262        C  0.29109701  0.25570990  0.49149135     0.02700
C263        C  0.27547752  0.26601595  0.95163986    -0.13500
C264        C  0.25508198  0.30625156  0.95155434     0.00200
C265        C  0.24858710  0.33281368  0.99195177    -0.12000
C266        C  0.26500039  0.32686664  0.53079178     0.02700
C267        C  0.28667797  0.28881294  0.53036626    -0.11400
H268        H  0.27962254  0.24439977  0.92025286     0.08300
H269        H  0.23238944  0.36319813  0.99192867     0.05800
H270        H  0.30038473  0.28593822  0.55968630     0.05700
N271        N  0.46386862  0.97170195  0.50000647    -0.37000
N272        N  0.41031767  0.02846092  0.49552476    -0.57600
N273        N  0.43987272  0.12875727  0.50169253    -0.37000
N274        N  0.49320841  0.07178993  0.50288524    -0.57600
C275        C  0.44629906  0.93110373  0.48970959     0.26500
C276        C  0.49028519  0.95408685  0.49213849     0.26500
C277        C  0.41380802  0.14641588  0.49108895     0.26500
C278        C  0.45785140  0.16900403  0.49510338     0.26500
C279        C  0.40077308  0.97872818  0.50116774     0.35200
C280        C  0.38801323  0.06155457  0.50023676     0.35200
C281        C  0.01530684  0.03898072  0.50949156     0.35200
C282        C  0.00241185  0.12144230  0.51257020     0.35200
C283        C  0.46170073  0.88689519  0.47570987    -0.22300
C284        C  0.48941745  0.90112488  0.47783387    -0.22300
C285        C  0.41532610  0.19917484  0.47900303    -0.22300
C286        C  0.44307747  0.21295184  0.48060199    -0.22300
C287        C  0.37224411  0.98027182  0.50938377    -0.23400
C288        C  0.36409856  0.03248210  0.50806962    -0.23400
C289        C  0.03870369  0.06820390  0.52291920    -0.23400
C290        C  0.03036868  0.12012944  0.52585672    -0.23400
C291        C  0.41693476  0.93159401  0.49573298    -0.18700
C292        C  0.01518057  0.98368631  0.49983060    -0.18700
C293        C  0.48698271  0.16836759  0.50470212    -0.18700
C294        C  0.38861538  0.11715339  0.49437032    -0.18700
H295        H  0.45384257  0.84797429  0.46587398     0.14200
H296        H  0.00686725  0.87492152  0.47018478     0.14200
H297        H  0.39835030  0.22576104  0.47034499     0.14200
H298        H  0.45130565  0.25153920  0.47306121     0.14200
H299        H  0.35850902  0.94718620  0.51489706     0.12500
H300        H  0.34285561  0.04693096  0.51196870     0.12500
H301        H  0.05983966  0.05438630  0.52924793     0.12500
H302        H  0.04374621  0.15330212  0.53523401     0.12500
H303        H  0.45831217  0.00715996  0.51632860     0.25700
H304        H  0.44473493  0.09352004  0.51735214     0.25700
C305        C  0.05338033  0.36062215  0.50471955     0.02700
C306        C  0.06352334  0.38340235  0.96531390    -0.13500
C307        C  0.08099009  0.42809141  0.96789848     0.00200
C308        C  0.08628754  0.45225508  0.01093099    -0.12000
C309        C  0.07709762  0.42948682  0.55071843     0.02700
C310        C  0.06059005  0.38378309  0.54718219    -0.11400
H311        H  0.05872669  0.36489856  0.93279358     0.08300
H312        H  0.09945530  0.48701271  0.01392451     0.05800
H313        H  0.05409299  0.36521243  0.57782761     0.05700
O314        O  0.17359397  0.63982911  0.80635390    -0.80600
O315        O  0.15531435  0.54812207  0.69909490    -0.80600
O316        O  0.18637482  0.65214939  0.70076190    -0.80600
O317        O  0.17068736  0.45979655  0.80255232    -0.80500
O318        O  0.18670515  0.60090759  0.63902791    -0.80700
O319        O  0.15417375  0.54035716  0.81456139    -0.80600
O320        O  0.16774757  0.46503479  0.70906616    -0.80600
O321        O  0.21223679  0.67542010  0.78596266    -0.80600
C322        C  0.18912755  0.67985952  0.80563091     1.09100
C323        C  0.14982326  0.49893274  0.69548809     1.09000
C324        C  0.17974054  0.64412989  0.65819918     1.09100
C325        C  0.15284129  0.49149396  0.82108910     1.09000
O326        O  0.20808815  0.50480112  0.85037352    -0.80600
O327        O  0.23672093  0.58922772  0.67931863    -0.80600
O328        O  0.25237705  0.59424544  0.77534078    -0.80600
O329        O  0.22950538  0.47001507  0.70724297    -0.80600
O330        O  0.20336275  0.50433381  0.65568832    -0.80600
O331        O  0.22887074  0.60318130  0.83919105    -0.80600
O332        O  0.23186055  0.47039799  0.79466692    -0.80500
O333        O  0.24211657  0.66864593  0.71121729    -0.80600
Co334      Co  0.19124954  0.57177154  0.82359738     1.51500
Co335      Co  0.19503436  0.56952450  0.69370950     1.51700
Co336      Co  0.21964108  0.61817417  0.73919974     1.51600
Co337      Co  0.20017173  0.47110488  0.75330477     1.51500
O338        O  0.20033198  0.55182069  0.75847983    -1.42500
C339        C  0.22581901  0.47104031  0.83535889     1.09000
C340        C  0.24887040  0.63507252  0.68076713     1.09100
C341        C  0.25190611  0.60042085  0.81803191     1.09100
C342        C  0.22314371  0.47366633  0.66628564     1.09100
C343        C  0.12466580  0.48046875  0.66869154    -0.06600
C344        C  0.10872612  0.51788624  0.64474488    -0.17700
C345        C  0.09074842  0.50227895  0.60878383     0.10600
C346        C  0.08896650  0.44800966  0.59543939    -0.06500
C347        C  0.10205985  0.41041556  0.62293099    -0.17700
C348        C  0.11906706  0.42582294  0.65993872     0.10700
S349        S  0.07115626  0.55352448  0.58072215    -0.32700
S350        S  0.13342253  0.37327975  0.69344148    -0.32700
H351        H  0.13059985  0.40191741  0.73478064     0.28700
H352        H  0.04949285  0.52023111  0.56438502     0.28700
H353        H  0.11128182  0.55988149  0.65246563     0.19300
H354        H  0.10019017  0.36846913  0.61432323     0.19300
C355        C  0.13417817  0.47392524  0.85749947    -0.06600
C356        C  0.10676435  0.45675137  0.84745080    -0.17700
C357        C  0.08804016  0.44480191  0.88227050     0.10600
C358        C  0.09781761  0.44437240  0.92804004    -0.06500
C359        C  0.12561552  0.45956884  0.93692550    -0.17700
C360        C  0.14250086  0.47899566  0.90359570     0.10700
S361        S  0.05180934  0.43561353  0.86602196    -0.32700
S362        S  0.17255261  0.51526192  0.92450551    -0.32700
H363        H  0.16751942  0.55904721  0.89716650     0.28700
H364        H  0.04098018  0.45742279  0.90653231     0.28700
H365        H  0.09937242  0.45584599  0.81261106     0.19300
H366        H  0.13424102  0.45907235  0.97097180     0.19300
C367        C  0.03593947  0.31166936  0.50244157    -0.06600
C368        C  0.01322173  0.30829851  0.53207302    -0.17700
C369        C  0.99764237  0.26180440  0.53477864     0.10600
C370        C  0.00278828  0.21912933  0.50396972    -0.06500
C371        C  0.02451779  0.22320594  0.97285243    -0.17700
C372        C  0.04221538  0.26730522  0.97360190     0.10700
S373        S  0.47242954  0.25874953  0.57948754    -0.32700
S374        S  0.07421004  0.26294576  0.94154325    -0.32700
H375        H  0.07100283  0.21041835  0.92487418     0.28700
H376        H  0.47518186  0.20391437  0.58601125     0.28700
H377        H  0.00819831  0.34149308  0.55472805     0.19300
H378        H  0.02862146  0.18996545  0.94976618     0.19300
C379        C  0.36147108  0.14665959  0.49099723    -0.06600
C380        C  0.34486862  0.15266276  0.52954150    -0.17700
C381        C  0.32026876  0.18320369  0.52894605     0.10600
C382        C  0.31383814  0.21445321  0.49102538    -0.06500
C383        C  0.33018579  0.20697109  0.95200861    -0.17700
C384        C  0.35265177  0.17106713  0.95080910     0.10700
S385        S  0.29713966  0.17682929  0.57603281    -0.32700
S386        S  0.36976288  0.15937914  0.89736884    -0.32700
H387        H  0.37992513  0.10834939  0.90686075     0.28700
H388        H  0.27237979  0.18405155  0.55043596     0.28700
H389        H  0.35073033  0.13211913  0.55995955     0.19300
H390        H  0.32575082  0.22929923  0.92204782     0.19300
C391        C  0.25994022  0.36521439  0.56895894    -0.06600
C392        C  0.25582745  0.41879856  0.55820251    -0.17700
C393        C  0.24345827  0.45504019  0.58838610     0.10600
C394        C  0.23758854  0.43925708  0.63261585    -0.06500
C395        C  0.24455040  0.38724785  0.64503299    -0.17700
C396        C  0.25449913  0.34960326  0.61332643     0.10700
S397        S  0.23429836  0.51894598  0.56659706    -0.32700
S398        S  0.25685096  0.28181524  0.63050951    -0.32700
H399        H  0.24443715  0.26036447  0.59063434     0.28700
H400        H  0.24095730  0.54692156  0.60645751     0.28700
H401        H  0.26038813  0.43170390  0.52447166     0.19300
H402        H  0.23997021  0.37447739  0.67877967     0.19300
C403        C  0.24573200  0.33227856  0.90983828    -0.06600
C404        C  0.26659433  0.35531253  0.88403064    -0.17700
C405        C  0.26105926  0.40081047  0.85934384     0.10600
C406        C  0.23409817  0.42472280  0.86162634    -0.06500
C407        C  0.21260138  0.39786672  0.88312417    -0.17700
C408        C  0.21792976  0.35104741  0.90569832     0.10700
S409        S  0.28984126  0.42605318  0.82743380    -0.32700
S410        S  0.18885433  0.31861978  0.93135017    -0.32700
H411        H  0.20285416  0.26992645  0.93726483     0.28700
H412        H  0.27995079  0.47767953  0.82115106     0.28700
H413        H  0.28798496  0.34075932  0.88636926     0.19300
H414        H  0.19128141  0.41267608  0.88145910     0.19300
C415        C  0.09492973  0.90202838  0.49325411    -0.06600
C416        C  0.07795432  0.90619075  0.95410257    -0.17700
C417        C  0.05290955  0.93528608  0.95470264     0.10600
C418        C  0.04271759  0.95581522  0.49633249    -0.06500
C419        C  0.05948594  0.95167588  0.53540063    -0.17700
C420        C  0.08622548  0.92897727  0.53351904     0.10700
S421        S  0.03487736  0.94416905  0.90133065    -0.32700
S422        S  0.10876717  0.93997076  0.58246735    -0.32700
H423        H  0.13389484  0.93852477  0.55815297     0.28700
H424        H  0.02210694  0.99293507  0.91330660     0.28700
H425        H  0.08393508  0.88649288  0.92265435     0.19300
H426        H  0.05231239  0.96921589  0.56712843     0.19300
C427        C  0.15128753  0.76023101  0.56623613    -0.06600
C428        C  0.14469256  0.70696897  0.55782818    -0.17700
C429        C  0.15128982  0.66856546  0.58922027     0.10600
C430        C  0.16489959  0.68390336  0.63062962    -0.06500
C431        C  0.16852036  0.73818845  0.64115365    -0.17700
C432        C  0.16234222  0.77653401  0.60899920     0.10700
S433        S  0.14310804  0.60013652  0.57420480    -0.32700
S434        S  0.17084472  0.84464349  0.62351864    -0.32700
H435        H  0.17653241  0.86035780  0.57945175     0.28700
H436        H  0.12731251  0.60943843  0.53465823     0.28700
H437        H  0.13537068  0.69526888  0.52544285     0.19300
H438        H  0.17846667  0.75049545  0.67291685     0.19300
C439        C  0.16666099  0.79683019  0.90570944    -0.06600
C440        C  0.14687312  0.78101433  0.87233777    -0.17700
C441        C  0.15438624  0.74731921  0.83595773     0.10600
C442        C  0.18210080  0.72789671  0.83316375    -0.06500
C443        C  0.20256513  0.74866935  0.86329994    -0.17700
C444        C  0.19518902  0.78331507  0.89923487     0.10700
S445        S  0.12754595  0.72871345  0.79505931    -0.32700
S446        S  0.22282866  0.80673158  0.93692748    -0.32700
H447        H  0.20826220  0.85195358  0.95321937     0.28700
H448        H  0.14598071  0.71930617  0.75893833     0.28700
H449        H  0.12500671  0.79187594  0.87622601     0.19300
H450        H  0.22409788  0.73499469  0.86080609     0.19300
C451        C  0.37204164  0.78331203  0.49209597    -0.06600
C452        C  0.39273846  0.79328826  0.52554342    -0.17700
C453        C  0.40721816  0.84137375  0.52810007     0.10600
C454        C  0.40214679  0.87966838  0.49495879    -0.06500
C455        C  0.38239128  0.86885240  0.96035977    -0.17700
C456        C  0.36654600  0.82241158  0.95957853     0.10700
S457        S  0.43138772  0.85174774  0.57502884    -0.32700
S458        S  0.33814929  0.81832285  0.91868739    -0.32700
H459        H  0.31907962  0.79539021  0.94805604     0.28700
H460        H  0.42753805  0.90702828  0.57923756     0.28700
H461        H  0.39705372  0.76398152  0.55082842     0.19300
H462        H  0.37829667  0.89823466  0.93503610     0.19300
C463        C  0.30858958  0.66852169  0.57848155    -0.06600
C464        C  0.29240189  0.70975152  0.59754470    -0.17700
C465        C  0.27307753  0.70009411  0.63119054     0.10600
C466        C  0.27035890  0.64812720  0.64754226    -0.06500
C467        C  0.28766910  0.60745973  0.63008772    -0.17700
C468        C  0.30668019  0.61702372  0.59580341     0.10700
S469        S  0.25065224  0.75477561  0.64810317    -0.32700
S470        S  0.32764820  0.56177263  0.57532290    -0.32700
H471        H  0.35024250  0.59234967  0.56115394     0.28700
H472        H  0.22615104  0.72448712  0.64361190     0.28700
H473        H  0.29337214  0.74910027  0.58384880     0.19300
H474        H  0.28618800  0.56776060  0.64290227     0.19300
C475        C  0.27793785  0.60969533  0.84418287    -0.06600
C476        C  0.28556904  0.57392267  0.87761041    -0.17700
C477        C  0.30618609  0.58675950  0.91013367     0.10600
C478        C  0.31703446  0.63898839  0.91279528    -0.06500
C479        C  0.31076089  0.67328169  0.87732483    -0.17700
C480        C  0.29197950  0.65854896  0.84256629     0.10700
S481        S  0.31719806  0.53523683  0.94771363    -0.32700
S482        S  0.28391384  0.70642287  0.80035657    -0.32700
H483        H  0.28760670  0.66945579  0.76432999     0.28700
H484        H  0.34313697  0.55841761  0.95955209     0.28700
H485        H  0.27471387  0.53654486  0.87954800     0.19300
H486        H  0.31884196  0.71329427  0.87811464     0.19300
C487        C  0.85527405  0.73396881  0.99419878     0.02700
C488        C  0.84959915  0.70234335  0.45513144    -0.13500
C489        C  0.82920702  0.66227849  0.45560648     0.00400
C490        C  0.81636187  0.65161697  0.49669165    -0.12000
C491        C  0.82393961  0.67902488  0.03672493     0.02700
C492        C  0.84294915  0.72094344  0.03521355    -0.11400
H493        H  0.85962704  0.71138640  0.42371527     0.08300
H494        H  0.79911805  0.62396384  0.49739923     0.05800
H495        H  0.84710197  0.74491171  0.06560455     0.05700
C496        C  0.61968389  0.86545596  0.99231570     0.02700
C497        C  0.63549743  0.85709914  0.45267982    -0.13500
C498        C  0.65596498  0.81673985  0.45008407     0.00200
C499        C  0.66214208  0.78768224  0.48867895    -0.12000
C500        C  0.64710868  0.79636617  0.02851710     0.02700
C501        C  0.62529069  0.83337854  0.02950661    -0.11400
H502        H  0.63105696  0.87990161  0.42296297     0.08300
H503        H  0.67725149  0.75537992  0.48683525     0.05800
H504        H  0.61189275  0.83507545  0.05871200     0.05700
C505        C  0.79109430  0.25571008  0.99148736     0.02700
C506        C  0.77548182  0.26601781  0.45164205    -0.13500
C507        C  0.75508805  0.30625690  0.45155389     0.00200
C508        C  0.74859269  0.33282138  0.49194991    -0.12000
C509        C  0.76499646  0.32686227  0.03079166     0.02700
C510        C  0.78667519  0.28881082  0.03036383    -0.11400
H511        H  0.77962621  0.24439958  0.42025567     0.08300
H512        H  0.73239607  0.36320686  0.49192481     0.05800
H513        H  0.80038273  0.28593577  0.05968298     0.05700
N514        N  0.96386403  0.97170029  0.99998928    -0.37000
N515        N  0.91031389  0.02845966  0.99550110    -0.57600
N516        N  0.93987007  0.12875542  0.00167563    -0.37000
N517        N  0.99320504  0.07178742  0.00287299    -0.57600
C518        C  0.94629502  0.93109956  0.98969438     0.26500
C519        C  0.99028113  0.95408282  0.99212713     0.26500
C520        C  0.91380552  0.14641752  0.99107331     0.26500
C521        C  0.95784908  0.16900455  0.99509418     0.26500
C522        C  0.90076858  0.97872693  0.00114246     0.35200
C523        C  0.88800951  0.06155412  0.00021106     0.35200
C524        C  0.51530316  0.03897741  0.00948106     0.35200
C525        C  0.50240905  0.12143955  0.01256150     0.35200
C526        C  0.96169728  0.88688855  0.97570250    -0.22300
C527        C  0.98941372  0.90111892  0.97782891    -0.22300
C528        C  0.91532387  0.19917998  0.97899667    -0.22300
C529        C  0.94307545  0.21295586  0.98059949    -0.22300
C530        C  0.87223914  0.98027169  0.00935375    -0.23400
C531        C  0.86409371  0.03248218  0.00803943    -0.23400
C532        C  0.53869968  0.06819924  0.02291290    -0.23400
C533        C  0.53036545  0.12012557  0.02585195    -0.23400
C534        C  0.91693042  0.93159183  0.99571329    -0.18700
C535        C  0.51517636  0.98368273  0.99982053    -0.18700
C536        C  0.98698009  0.16836566  0.00469571    -0.18700
C537        C  0.88861271  0.11715430  0.99434984    -0.18700
H538        H  0.95383998  0.84796606  0.96587043     0.14200
H539        H  0.50686404  0.87491413  0.97018547     0.14200
H540        H  0.89834866  0.22576872  0.97034288     0.14200
H541        H  0.95130404  0.25154537  0.97306595     0.14200
H542        H  0.85850354  0.94718593  0.01486521     0.12500
H543        H  0.84285093  0.04693077  0.01193630     0.12500
H544        H  0.55983487  0.05437971  0.02924506     0.12500
H545        H  0.54374270  0.15329659  0.03523231     0.12500
H546        H  0.95830699  0.00715991  0.01630573     0.25700
H547        H  0.94473147  0.09351563  0.01732972     0.25700
C548        C  0.55338455  0.36061234  0.00472991     0.02700
C549        C  0.56351959  0.38341337  0.46530443    -0.13500
C550        C  0.58098707  0.42810153  0.46789118     0.00200
C551        C  0.58628451  0.45226336  0.51092449    -0.12000
C552        C  0.57710150  0.42947935  0.05072599     0.02700
C553        C  0.56059444  0.38377455  0.04719188    -0.11400
H554        H  0.55872303  0.36491119  0.43278311     0.08300
H555        H  0.59945365  0.48701895  0.51391903     0.05800
H556        H  0.55409792  0.36520485  0.07783785     0.05700
O557        O  0.67359894  0.63983646  0.30635763    -0.80600
O558        O  0.65531772  0.54812145  0.19910051    -0.80600
O559        O  0.68637925  0.65215291  0.20076519    -0.80600
O560        O  0.67069367  0.45980169  0.30255532    -0.80500
O561        O  0.68670531  0.60090924  0.13903161    -0.80700
O562        O  0.65417902  0.54036204  0.31456354    -0.80600
O563        O  0.66775436  0.46503583  0.20906945    -0.80600
O564        O  0.71224193  0.67542539  0.28596410    -0.80600
C565        C  0.68913268  0.67986670  0.30563218     1.09100
C566        C  0.64982855  0.49893148  0.19549254     1.09000
C567        C  0.67974213  0.64413183  0.15820367     1.09100
C568        C  0.65284683  0.49149870  0.32109107     1.09000
O569        O  0.70809360  0.50480705  0.35037595    -0.80600
O570        O  0.73672274  0.58923372  0.17931811    -0.80600
O571        O  0.75238222  0.59425070  0.27534386    -0.80600
O572        O  0.72951143  0.47002158  0.20724405    -0.80600
O573        O  0.70336699  0.50433814  0.15569029    -0.80600
O574        O  0.72887524  0.60318747  0.33919366    -0.80600
O575        O  0.73186711  0.47040646  0.29466953    -0.80500
O576        O  0.74212146  0.66865023  0.21121902    -0.80600
Co577      Co  0.69125447  0.57177739  0.32359989     1.51500
Co578      Co  0.69503699  0.56952780  0.19371237     1.51700
Co579      Co  0.71964620  0.61817859  0.23920221     1.51600
Co580      Co  0.70017826  0.47111015  0.25330746     1.51500
O581        O  0.70033705  0.55182599  0.25848232    -1.42500
C582        C  0.72582525  0.47104745  0.33536132     1.09000
C583        C  0.74887323  0.63507744  0.18076699     1.09100
C584        C  0.75191080  0.60042668  0.31803512     1.09100
C585        C  0.72314898  0.47367239  0.16628669     1.09100
C586        C  0.62467189  0.48046428  0.16869590    -0.06600
C587        C  0.60872943  0.51788056  0.14475231    -0.17700
C588        C  0.59075165  0.50227255  0.10879144     0.10600
C589        C  0.58897151  0.44800349  0.09544555    -0.06500
C590        C  0.60206831  0.41041046  0.12293363    -0.17700
C591        C  0.61907642  0.42581788  0.15993989     0.10700
S592        S  0.57115752  0.55351719  0.08073200    -0.32700
S593        S  0.63343773  0.37327344  0.19343531    -0.32700
H594        H  0.63061313  0.40190317  0.23477789     0.28700
H595        H  0.54949648  0.52022195  0.06438921     0.28700
H596        H  0.61128295  0.55987576  0.15247544     0.19300
H597        H  0.60020055  0.36846382  0.11432373     0.19300
C598        C  0.63418192  0.47392974  0.35749922    -0.06600
C599        C  0.60676621  0.45676831  0.34744832    -0.17700
C600        C  0.58804005  0.44482034  0.38226563     0.10600
C601        C  0.59781665  0.44438149  0.42803493    -0.06500
C602        C  0.62561588  0.45956677  0.43692296    -0.17700
C603        C  0.64250430  0.47899079  0.40359598     0.10700
S604        S  0.55180863  0.43564468  0.36601526    -0.32700
S605        S  0.67255875  0.51524514  0.42451074    -0.32700
H606        H  0.66753062  0.55903461  0.39717423     0.28700
H607        H  0.54098014  0.45744564  0.40652908     0.28700
H608        H  0.59937475  0.45586998  0.31260794     0.19300
H609        H  0.63424018  0.45906360  0.47097002     0.19300
C610        C  0.53594322  0.31166026  0.00245153    -0.06600
C611        C  0.51322546  0.30828886  0.03208305    -0.17700
C612        C  0.49764299  0.26179752  0.03478211     0.10600
C613        C  0.50278669  0.21912656  0.00396785    -0.06500
C614        C  0.52451875  0.22320882  0.47285340    -0.17700
C615        C  0.54221385  0.26731172  0.47359694     0.10700
S616        S  0.97242786  0.25874174  0.07948782    -0.32700
S617        S  0.57420773  0.26295535  0.44153621    -0.32700
H618        H  0.57100985  0.21041637  0.42489057     0.28700
H619        H  0.97517552  0.20390458  0.08600495     0.28700
H620        H  0.50820366  0.34148097  0.05474149     0.19300
H621        H  0.52862346  0.18996593  0.44976918     0.19300
C622        C  0.86146898  0.14666247  0.99098045    -0.06600
C623        C  0.84486577  0.15265715  0.02952454    -0.17700
C624        C  0.82026633  0.18319922  0.02893305     0.10600
C625        C  0.81383700  0.21445761  0.99101767    -0.06500
C626        C  0.83018536  0.20695635  0.45201560    -0.17700
C627        C  0.85265203  0.17105342  0.45082155     0.10700
S628        S  0.79713610  0.17681604  0.07601725    -0.32700
S629        S  0.86976208  0.15935384  0.39738207    -0.32700
H630        H  0.87992909  0.10833039  0.40688420     0.28700
H631        H  0.77237643  0.18404408  0.05042117     0.28700
H632        H  0.85072648  0.13210560  0.05993923     0.19300
H633        H  0.82574981  0.22927633  0.42205096     0.19300
C634        C  0.75993837  0.36521268  0.06895789    -0.06600
C635        C  0.75582619  0.41879662  0.05819991    -0.17700
C636        C  0.74346128  0.45504245  0.08838486     0.10600
C637        C  0.73759290  0.43926191  0.13261602    -0.06500
C638        C  0.74455413  0.38725246  0.14503346    -0.17700
C639        C  0.75450035  0.34960511  0.11332719     0.10700
S640        S  0.73430751  0.51895154  0.06659613    -0.32700
S641        S  0.75685418  0.28181860  0.13051430    -0.32700
H642        H  0.74444062  0.26036285  0.09064085     0.28700
H643        H  0.74096070  0.54692449  0.10646007     0.28700
H644        H  0.76038531  0.43169952  0.02446769     0.19300
H645        H  0.73997577  0.37448379  0.17878159     0.19300
C646        C  0.74573892  0.33228256  0.40983679    -0.06600
C647        C  0.76660149  0.35531946  0.38403172    -0.17700
C648        C  0.76106637  0.40081893  0.35934670     0.10600
C649        C  0.73410472  0.42472914  0.36162802    -0.06500
C650        C  0.71260791  0.39786961  0.38312268    -0.17700
C651        C  0.71793647  0.35104926  0.40569520     0.10700
S652        S  0.78984922  0.42606681  0.32744155    -0.32700
S653        S  0.68886122  0.31861829  0.43134452    -0.32700
H654        H  0.70286191  0.26992551  0.43725773     0.28700
H655        H  0.77995637  0.47769053  0.32115393     0.28700
H656        H  0.78799237  0.34076764  0.38637188     0.19300
H657        H  0.69128753  0.41267704  0.38145599     0.19300
C658        C  0.59492213  0.90201322  0.99325415    -0.06600
C659        C  0.57796098  0.90620599  0.45410408    -0.17700
C660        C  0.55291436  0.93529601  0.45470775     0.10600
C661        C  0.54271269  0.95580944  0.99632571    -0.06500
C662        C  0.55947917  0.95166824  0.03539567    -0.17700
C663        C  0.58621758  0.92896449  0.03351765     0.10700
S664        S  0.53487971  0.94417904  0.40133793    -0.32700
S665        S  0.60875782  0.93995616  0.08246796    -0.32700
H666        H  0.63388623  0.93851186  0.05815548     0.28700
H667        H  0.52210872  0.99294386  0.41331614     0.28700
H668        H  0.58394186  0.88651129  0.42265468     0.19300
H669        H  0.55230488  0.96920976  0.06712245     0.19300
C670        C  0.65128533  0.76022908  0.06624203    -0.06600
C671        C  0.64468820  0.70696760  0.05783706    -0.17700
C672        C  0.65128686  0.66856555  0.08922936     0.10600
C673        C  0.66489969  0.68390453  0.13063605    -0.06500
C674        C  0.66852252  0.73818969  0.14115762    -0.17700
C675        C  0.66234386  0.77653371  0.10900227     0.10700
S676        S  0.64310458  0.60013695  0.07421445    -0.32700
S677        S  0.67085175  0.84464228  0.12351688    -0.32700
H678        H  0.67652680  0.86036089  0.07944680     0.28700
H679        H  0.62728577  0.60944480  0.03469256     0.28700
H680        H  0.63536463  0.69526628  0.02545346     0.19300
H681        H  0.67847083  0.75049776  0.17291887     0.19300
C682        C  0.66666704  0.79684497  0.40570498    -0.06600
C683        C  0.64687961  0.78103088  0.37233203    -0.17700
C684        C  0.65439232  0.74733253  0.33595379     0.10600
C685        C  0.68210648  0.72790683  0.33316211    -0.06500
C686        C  0.70257114  0.74868031  0.36329775    -0.17700
C687        C  0.69519499  0.78332834  0.39923135     0.10700
S688        S  0.62755189  0.72872548  0.29505594    -0.32700
S689        S  0.72283411  0.80674503  0.43692466    -0.32700
H690        H  0.70826812  0.85196883  0.45321411     0.28700
H691        H  0.64598677  0.71931181  0.25893615     0.28700
H692        H  0.62501318  0.79189420  0.37621934     0.19300
H693        H  0.72410347  0.73500435  0.36080513     0.19300
C694        C  0.87204078  0.78330562  0.99208129    -0.06600
C695        C  0.89273512  0.79328802  0.02553172    -0.17700
C696        C  0.90721243  0.84137619  0.02808800     0.10600
C697        C  0.90214268  0.87966606  0.99494204    -0.06500
C698        C  0.88239212  0.86886079  0.46037943    -0.17700
C699        C  0.86654537  0.82242193  0.45959718     0.10700
S700        S  0.93137570  0.85176064  0.07502366    -0.32700
S701        S  0.83814586  0.81833979  0.41871061    -0.32700
H702        H  0.81907799  0.79540300  0.44807983     0.28700
H703        H  0.92752425  0.90704133  0.07922429     0.28700
H704        H  0.89704969  0.76398463  0.05081986     0.19300
H705        H  0.87829615  0.89824678  0.43505903     0.19300
C706        C  0.80858732  0.66852371  0.07847293    -0.06600
C707        C  0.79239896  0.70975308  0.09753521    -0.17700
C708        C  0.77307686  0.70009727  0.13118478     0.10600
C709        C  0.77036016  0.64813167  0.14753937    -0.06500
C710        C  0.78767097  0.60746488  0.13008541    -0.17700
C711        C  0.80668042  0.61702772  0.09579863     0.10700
S712        S  0.75065214  0.75477867  0.14810008    -0.32700
S713        S  0.82765032  0.56177830  0.07532039    -0.32700
H714        H  0.85024409  0.59235736  0.06115222     0.28700
H715        H  0.72615109  0.72448910  0.14361481     0.28700
H716        H  0.79336751  0.74910109  0.08383672     0.19300
H717        H  0.78619142  0.56776638  0.14290245     0.19300
C718        C  0.77794208  0.60970126  0.34418727    -0.06600
C719        C  0.78557236  0.57392897  0.37761584    -0.17700
C720        C  0.80618874  0.58676675  0.41014006     0.10600
C721        C  0.81703635  0.63899659  0.41280269    -0.06500
C722        C  0.81076335  0.67329010  0.37733181    -0.17700
C723        C  0.79198329  0.65855568  0.34257167     0.10700
S724        S  0.81720163  0.53524356  0.44771897    -0.32700
S725        S  0.78391812  0.70642844  0.30036075    -0.32700
H726        H  0.78761087  0.66946060  0.26433469     0.28700
H727        H  0.84313988  0.55842618  0.45955874     0.28700
H728        H  0.77471740  0.53655123  0.37955318     0.19300
H729        H  0.81884353  0.71330304  0.37812220     0.19300
C730        C  0.85527468  0.73397525  0.49421086     0.02700
C731        C  0.84959903  0.70233330  0.95512130    -0.13500
C732        C  0.82920554  0.66227095  0.95559815     0.00400
C733        C  0.81635932  0.65161351  0.99668346    -0.12000
C734        C  0.82394227  0.67902534  0.53673454     0.02700
C735        C  0.84295093  0.72094569  0.53522541    -0.11400
H736        H  0.85962742  0.71137283  0.92370485     0.08300
H737        H  0.79911510  0.62396170  0.99739192     0.05800
H738        H  0.84710385  0.74491150  0.56561742     0.05700
C739        C  0.61969112  0.86546999  0.49231491     0.02700
C740        C  0.63549050  0.85708493  0.95268091    -0.13500
C741        C  0.65595956  0.81672828  0.95008745     0.00200
C742        C  0.66213875  0.78767567  0.98868421    -0.12000
C743        C  0.64711210  0.79637145  0.52851237     0.02700
C744        C  0.62529657  0.83338941  0.52950450    -0.11400
H745        H  0.63104945  0.87988478  0.92296306     0.08300
H746        H  0.67724960  0.75537572  0.98684242     0.05800
H747        H  0.61189911  0.83508752  0.55871021     0.05700
C748        C  0.79109700  0.25571001  0.49149142     0.02700
C749        C  0.77547740  0.26601549  0.95163930    -0.13500
C750        C  0.75508182  0.30625161  0.95155420     0.00200
C751        C  0.74858668  0.33281444  0.99195168    -0.12000
C752        C  0.76500046  0.32686692  0.53079163     0.02700
C753        C  0.78667799  0.28881316  0.53036627    -0.11400
H754        H  0.77962213  0.24439926  0.92025286     0.08300
H755        H  0.73238946  0.36319881  0.99192848     0.05800
H756        H  0.80038466  0.28593851  0.55968640     0.05700
N757        N  0.96386834  0.97170250  0.50000636    -0.37000
N758        N  0.91031744  0.02846116  0.49552458    -0.57600
N759        N  0.93987261  0.12875666  0.50169297    -0.37000
N760        N  0.99320823  0.07178967  0.50288544    -0.57600
C761        C  0.94629896  0.93110315  0.48970908     0.26500
C762        C  0.99028517  0.95408654  0.49213826     0.26500
C763        C  0.91380796  0.14641580  0.49108892     0.26500
C764        C  0.95785132  0.16900369  0.49510362     0.26500
C765        C  0.90077304  0.97872841  0.50116763     0.35200
C766        C  0.88801296  0.06155484  0.50023700     0.35200
C767        C  0.51530702  0.03898101  0.50949122     0.35200
C768        C  0.50241212  0.12144267  0.51256966     0.35200
C769        C  0.96170060  0.88689473  0.47570951    -0.22300
C770        C  0.98941720  0.90112495  0.47783384    -0.22300
C771        C  0.91532593  0.19917459  0.47900285    -0.22300
C772        C  0.94307731  0.21295107  0.48060206    -0.22300
C773        C  0.87224410  0.98027263  0.50938363    -0.23400
C774        C  0.86409787  0.03248289  0.50806984    -0.23400
C775        C  0.53870396  0.06820436  0.52291857    -0.23400
C776        C  0.53036912  0.12013027  0.52585622    -0.23400
C777        C  0.91693469  0.93159399  0.49573271    -0.18700
C778        C  0.51518063  0.98368651  0.49983059    -0.18700
C779        C  0.98698261  0.16836740  0.50470257    -0.18700
C780        C  0.88861529  0.11715356  0.49437049    -0.18700
H781        H  0.95384276  0.84797350  0.46587421     0.14200
H782        H  0.50686724  0.87492164  0.47018424     0.14200
H783        H  0.89835018  0.22576051  0.47034418     0.14200
H784        H  0.95130574  0.25153858  0.47306086     0.14200
H785        H  0.85850925  0.94718634  0.51489698     0.12500
H786        H  0.84285537  0.04693134  0.51196965     0.12500
H787        H  0.55983985  0.05438651  0.52924730     0.12500
H788        H  0.54374670  0.15330257  0.53523206     0.12500
H789        H  0.95831188  0.00716013  0.51632693     0.25700
H790        H  0.94473460  0.09351995  0.51735291     0.25700
C791        C  0.55338032  0.36062229  0.50471959     0.02700
C792        C  0.56352333  0.38340264  0.96531430    -0.13500
C793        C  0.58098998  0.42809156  0.96789868     0.00200
C794        C  0.58628727  0.45225476  0.01093118    -0.12000
C795        C  0.57709765  0.42948697  0.55071850     0.02700
C796        C  0.56059002  0.38378309  0.54718231    -0.11400
H797        H  0.55872695  0.36489870  0.93279366     0.08300
H798        H  0.59945534  0.48701243  0.01392486     0.05800
H799        H  0.55409291  0.36521230  0.57782752     0.05700
O800        O  0.67359393  0.63982930  0.80635400    -0.80600
O801        O  0.65531441  0.54812200  0.69909492    -0.80600
O802        O  0.68637489  0.65214940  0.70076190    -0.80600
O803        O  0.67068728  0.45979673  0.80255252    -0.80500
O804        O  0.68670523  0.60090758  0.63902790    -0.80700
O805        O  0.65417358  0.54035721  0.81456141    -0.80600
O806        O  0.66774746  0.46503453  0.70906650    -0.80600
O807        O  0.71223673  0.67542001  0.78596274    -0.80600
C808        C  0.68912753  0.67985964  0.80563094     1.09100
C809        C  0.64982333  0.49893266  0.69548794     1.09000
C810        C  0.67974062  0.64412987  0.65819921     1.09100
C811        C  0.65284120  0.49149406  0.82108929     1.09000
O812        O  0.70808805  0.50480111  0.85037364    -0.80600
O813        O  0.73672103  0.58922775  0.67931871    -0.80600
O814        O  0.75237703  0.59424520  0.77534078    -0.80600
O815        O  0.72950524  0.47001472  0.70724318    -0.80600
O816        O  0.70336283  0.50433364  0.65568831    -0.80600
O817        O  0.72887061  0.60318124  0.83919089    -0.80600
O818        O  0.73186047  0.47039806  0.79466713    -0.80500
O819        O  0.74211655  0.66864595  0.71121756    -0.80600
Co820      Co  0.69124944  0.57177159  0.82359741     1.51500
Co821      Co  0.69503441  0.56952448  0.69370951     1.51700
Co822      Co  0.71964108  0.61817408  0.73919981     1.51600
Co823      Co  0.70017161  0.47110486  0.75330499     1.51500
O824        O  0.70033194  0.55182071  0.75847991    -1.42500
C825        C  0.72581907  0.47104048  0.83535918     1.09000
C826        C  0.74887047  0.63507258  0.68076731     1.09100
C827        C  0.75190605  0.60042056  0.81803189     1.09100
C828        C  0.72314375  0.47366625  0.66628580     1.09100
C829        C  0.62466583  0.48046855  0.66869167    -0.06600
C830        C  0.60872618  0.51788611  0.64474499    -0.17700
C831        C  0.59074851  0.50227898  0.60878390     0.10600
C832        C  0.58896657  0.44800973  0.59543943    -0.06500
C833        C  0.60205993  0.41041565  0.62293103    -0.17700
C834        C  0.61906714  0.42582281  0.65993867     0.10700
S835        S  0.57115642  0.55352464  0.58072225    -0.32700
S836        S  0.63342282  0.37327911  0.69344060    -0.32700
H837        H  0.63060018  0.40191593  0.73478014     0.28700
H838        H  0.54949296  0.52023124  0.56438539     0.28700
H839        H  0.61128189  0.55988132  0.65246579     0.19300
H840        H  0.60019025  0.36846912  0.61432338     0.19300
C841        C  0.63417804  0.47392549  0.85749954    -0.06600
C842        C  0.60676420  0.45675158  0.84745086    -0.17700
C843        C  0.58804003  0.44480198  0.88227055     0.10600
C844        C  0.59781746  0.44437281  0.92804015    -0.06500
C845        C  0.62561543  0.45956900  0.93692551    -0.17700
C846        C  0.64250076  0.47899578  0.90359572     0.10700
S847        S  0.55180918  0.43561356  0.86602198    -0.32700
S848        S  0.67255244  0.51526213  0.92450555    -0.32700
H849        H  0.66751918  0.55904746  0.89716663     0.28700
H850        H  0.54097992  0.45742280  0.90653226     0.28700
H851        H  0.59937231  0.45584550  0.81261108     0.19300
H852        H  0.63424091  0.45907260  0.97097183     0.19300
C853        C  0.53593943  0.31166952  0.50244140    -0.06600
C854        C  0.51322178  0.30829803  0.53207279    -0.17700
C855        C  0.49764245  0.26180407  0.53477842     0.10600
C856        C  0.50278826  0.21912941  0.50396934    -0.06500
C857        C  0.52451772  0.22320633  0.97285272    -0.17700
C858        C  0.54221537  0.26730541  0.97360205     0.10700
S859        S  0.97242938  0.25875002  0.57948759    -0.32700
S860        S  0.57421004  0.26294564  0.94154319    -0.32700
H861        H  0.57100307  0.21041771  0.92487523     0.28700
H862        H  0.97518153  0.20391490  0.58601167     0.28700
H863        H  0.50819821  0.34149253  0.55472826     0.19300
H864        H  0.52862147  0.18996558  0.94976642     0.19300
C865        C  0.86147105  0.14665976  0.49099751    -0.06600
C866        C  0.84486862  0.15266278  0.52954191    -0.17700
C867        C  0.82026877  0.18320387  0.52894620     0.10600
C868        C  0.81383812  0.21445338  0.49102529    -0.06500
C869        C  0.83018560  0.20697116  0.95200876    -0.17700
C870        C  0.85265162  0.17106735  0.95080907     0.10700
S871        S  0.79713959  0.17682966  0.57603296    -0.32700
S872        S  0.86976258  0.15937992  0.89736884    -0.32700
H873        H  0.87992500  0.10835021  0.90686045     0.28700
H874        H  0.77237951  0.18405152  0.55043653     0.28700
H875        H  0.85073021  0.13211876  0.55995975     0.19300
H876        H  0.82575055  0.22929916  0.92204800     0.19300
C877        C  0.75994027  0.36521468  0.56895870    -0.06600
C878        C  0.75582745  0.41879892  0.55820240    -0.17700
C879        C  0.74345824  0.45504045  0.58838618     0.10600
C880        C  0.73758858  0.43925714  0.63261589    -0.06500
C881        C  0.74455047  0.38724789  0.64503270    -0.17700
C882        C  0.75449917  0.34960339  0.61332607     0.10700
S883        S  0.73429822  0.51894625  0.56659731    -0.32700
S884        S  0.75685065  0.28181512  0.63050871    -0.32700
H885        H  0.74443681  0.26036528  0.59063321     0.28700
H886        H  0.74095755  0.54692171  0.60645765     0.28700
H887        H  0.76038836  0.43170439  0.52447177     0.19300
H888        H  0.73997046  0.37447720  0.67877947     0.19300
C889        C  0.74573197  0.33227831  0.90983828    -0.06600
C890        C  0.76659434  0.35531232  0.88403077    -0.17700
C891        C  0.76105933  0.40081031  0.85934405     0.10600
C892        C  0.73409835  0.42472269  0.86162661    -0.06500
C893        C  0.71260180  0.39786629  0.88312451    -0.17700
C894        C  0.71792986  0.35104711  0.90569845     0.10700
S895        S  0.78984129  0.42605318  0.82743411    -0.32700
S896        S  0.68885420  0.31861980  0.93135015    -0.32700
H897        H  0.70285393  0.26992640  0.93726489     0.28700
H898        H  0.77995070  0.47767942  0.82115123     0.28700
H899        H  0.78798497  0.34075898  0.88636936     0.19300
H900        H  0.69128158  0.41267607  0.88145998     0.19300
C901        C  0.59492980  0.90202857  0.49325428    -0.06600
C902        C  0.57795442  0.90619072  0.95410285    -0.17700
C903        C  0.55290967  0.93528597  0.95470282     0.10600
C904        C  0.54271762  0.95581532  0.49633238    -0.06500
C905        C  0.55948600  0.95167611  0.53540047    -0.17700
C906        C  0.58622557  0.92897758  0.53351904     0.10700
S907        S  0.53487733  0.94416911  0.90133088    -0.32700
S908        S  0.60876723  0.93997117  0.58246737    -0.32700
H909        H  0.63389490  0.93852500  0.55815299     0.28700
H910        H  0.52210705  0.99293524  0.91330696     0.28700
H911        H  0.58393536  0.88649313  0.92265448     0.19300
H912        H  0.55231245  0.96921639  0.56712813     0.19300
C913        C  0.65128762  0.76023114  0.56623626    -0.06600
C914        C  0.64469266  0.70696915  0.55782846    -0.17700
C915        C  0.65128990  0.66856553  0.58922042     0.10600
C916        C  0.66489971  0.68390340  0.63062978    -0.06500
C917        C  0.66852048  0.73818859  0.64115393    -0.17700
C918        C  0.66234223  0.77653410  0.60899940     0.10700
S919        S  0.64310798  0.60013663  0.57420449    -0.32700
S920        S  0.67084459  0.84464355  0.62351898    -0.32700
H921        H  0.67653235  0.86035835  0.57945226     0.28700
H922        H  0.62731205  0.60943899  0.53465837     0.28700
H923        H  0.63537101  0.69526897  0.52544288     0.19300
H924        H  0.67846671  0.75049580  0.67291702     0.19300
C925        C  0.66666109  0.79683039  0.90570935    -0.06600
C926        C  0.64687323  0.78101435  0.87233767    -0.17700
C927        C  0.65438637  0.74731942  0.83595755     0.10600
C928        C  0.68210088  0.72789677  0.83316378    -0.06500
C929        C  0.70256535  0.74866945  0.86329979    -0.17700
C930        C  0.69518915  0.78331518  0.89923480     0.10700
S931        S  0.62754623  0.72871378  0.79505867    -0.32700
S932        S  0.72282867  0.80673206  0.93692744    -0.32700
H933        H  0.70826233  0.85195429  0.95321922     0.28700
H934        H  0.64598105  0.71930641  0.75893775     0.28700
H935        H  0.62500674  0.79187584  0.87622578     0.19300
H936        H  0.72409790  0.73499414  0.86080618     0.19300
C937        C  0.87204153  0.78331186  0.49209585    -0.06600
C938        C  0.89273838  0.79328819  0.52554334    -0.17700
C939        C  0.90721822  0.84137369  0.52809993     0.10600
C940        C  0.90214676  0.87966835  0.49495884    -0.06500
C941        C  0.88239097  0.86885255  0.96035947    -0.17700
C942        C  0.86654577  0.82241169  0.95957834     0.10700
S943        S  0.93138781  0.85174767  0.57502856    -0.32700
S944        S  0.83814889  0.81832314  0.91868751    -0.32700
H945        H  0.81907919  0.79539043  0.94805607     0.28700
H946        H  0.92753811  0.90702820  0.57923748     0.28700
H947        H  0.89705381  0.76398128  0.55082807     0.19300
H948        H  0.87829628  0.89823441  0.93503557     0.19300
C949        C  0.80858948  0.66852144  0.57848140    -0.06600
C950        C  0.79240167  0.70975060  0.59754496    -0.17700
C951        C  0.77307735  0.70009395  0.63119071     0.10600
C952        C  0.77035878  0.64812753  0.64754237    -0.06500
C953        C  0.78766918  0.60746076  0.63008753    -0.17700
C954        C  0.80668019  0.61702405  0.59580333     0.10700
S955        S  0.75065221  0.75477581  0.64810331    -0.32700
S956        S  0.82764801  0.56177276  0.57532306    -0.32700
H957        H  0.85024238  0.59234941  0.56115386     0.28700
H958        H  0.72615093  0.72448755  0.64361217     0.28700
H959        H  0.79337174  0.74909986  0.58384878     0.19300
H960        H  0.78618821  0.56776097  0.64290224     0.19300
C961        C  0.77793781  0.60969509  0.84418272    -0.06600
C962        C  0.78556900  0.57392265  0.87761052    -0.17700
C963        C  0.80618595  0.58675967  0.91013389     0.10600
C964        C  0.81703429  0.63898857  0.91279522    -0.06500
C965        C  0.81076067  0.67328174  0.87732464    -0.17700
C966        C  0.79197940  0.65854878  0.84256605     0.10700
S967        S  0.81719805  0.53523719  0.94771403    -0.32700
S968        S  0.78391388  0.70642242  0.80035611    -0.32700
H969        H  0.78760684  0.66945468  0.76433007     0.28700
H970        H  0.84313682  0.55841872  0.95955208     0.28700
H971        H  0.77471386  0.53654481  0.87954829     0.19300
H972        H  0.81884166  0.71329440  0.87811429     0.19300
loop_ 
_geom_bond_atom_site_label_1 
_geom_bond_atom_site_label_2 
_geom_bond_distance 
_geom_bond_site_symmetry_2 
_ccdc_geom_bond_type 
C1            C6   1.405   1_556  A
C1          C245   1.408       .  A
C1          C208   1.487       .  S
C2            C3   1.408       .  A
C2          C244   1.408       .  A
C2            H7   1.083       .  S
C3            C4   1.404       .  A
C3          C235   1.490       .  S
C4          C248   1.397       .  A
C4            H8   1.083       .  S
C5            C6   1.399       .  A
C5          C247   1.397   1_554  A
C5          C220   1.477       .  S
C6            H9   1.084       .  S
C10          C15   1.406   1_556  A
C10         C254   1.413       .  A
C10         C172   1.493       .  S
C11          C12   1.406       .  A
C11         C253   1.413       .  A
C11          H16   1.082       .  S
C12          C13   1.402       .  A
C12         C196   1.487       .  S
C13         C257   1.399       .  A
C13          H17   1.084       .  S
C14          C15   1.393       .  A
C14         C256   1.399   1_554  A
C14         C184   1.472       .  S
C15          H18   1.082       .  S
C19          C24   1.417   1_556  A
C19         C263   1.415       .  A
C19         C139   1.497       .  S
C20          C21   1.400       .  A
C20         C262   1.415       .  A
C20          H25   1.082       .  S
C21          C22   1.389       .  A
C21         C160   1.477       .  S
C22         C266   1.392       .  A
C22          H26   1.084       .  S
C23          C24   1.405       .  A
C23         C265   1.392   1_554  A
C23         C148   1.485       .  S
C24          H27   1.082       .  S
N28          C33   1.354       .  A
N28          C32   1.352       .  A
N28          H60   1.037   1_566  S
N29          C36   1.353   1_546  A
N29          C37   1.354   1_556  A
N30          C35   1.354   1_554  A
N30          C34   1.353   1_554  A
N30          H61   1.037       .  S
N31         C524   1.351       .  A
N31         C525   1.350       .  A
C32          C40   1.386       .  A
C32          C48   1.415       .  A
C33          C41   1.388       .  A
C33         C535   1.419       .  A
C34          C42   1.390       .  A
C34          C51   1.421       .  A
C35          C50   1.415   1_556  A
C35          C43   1.384       .  A
C36          C48   1.418   1_554  A
C36          C44   1.387       .  A
C37          C51   1.418   1_554  A
C37          C45   1.387       .  A
C38          C46   1.388       .  A
C38          C49   1.414   1_544  A
C38         N517   1.351   1_455  A
C39          C47   1.385       .  A
C39         C536   1.412   1_455  A
C39         N517   1.350   1_455  A
C40          C41   1.373       .  A
C40          H52   1.082       .  S
C41         H539   1.081       .  S
C42          C43   1.371       .  A
C42          H54   1.080       .  S
C43          H55   1.082       .  S
C44          C45   1.371   1_565  A
C44          H56   1.082       .  S
C45          H57   1.081       .  S
C46          C47   1.365       .  A
C46          H58   1.080       .  S
C47          H59   1.082       .  S
C48         C211   1.490       .  S
C49         C519   1.419   1_455  A
C49         C175   1.489       .  S
C50         C525   1.412       .  A
C50         C613   1.490       .  S
C51         C136   1.492       .  S
H53         C527   1.081   1_455  S
C62          C67   1.407       .  A
C62         C306   1.409   1_554  A
C62         C124   1.492       .  S
C63          C64   1.405       .  A
C63         C305   1.409       .  A
C63          H68   1.078       .  S
C64          C65   1.414       .  A
C64         C115   1.506       .  S
C65         C309   1.403       .  A
C65          H69   1.082       .  S
C66          C67   1.400       .  A
C66         C308   1.403       .  A
C66         C103   1.494       .  S
C67          H70   1.083       .  S
O71          C79   1.257       .  A
O71         Co91   1.983       .  S
O72          C80   1.270       .  A
O72         Co92   1.984       .  S
O73          C81   1.303       .  A
O73         Co93   2.129       .  S
O74          C82   1.281       .  A
O74         Co94   2.068       .  S
O75          C81   1.257       .  A
O75         Co92   1.859       .  S
O76          C82   1.254       .  A
O76         Co91   1.955       .  S
O77          C80   1.274       .  A
O77         Co94   2.014       .  S
O78          C79   1.257       .  A
O78         Co93   2.001       .  S
C79         C199   1.477       .  S
C80         C100   1.497       .  S
C81         C187   1.481       .  S
C82         C112   1.488       .  S
O83          C96   1.271       .  A
O83         Co91   2.041       .  S
O84          C97   1.295       .  A
O84         Co92   2.107       .  S
O85          C98   1.268       .  A
O85         Co93   1.980       .  S
O86          C99   1.250       .  A
O86         Co94   1.968       .  S
O87          C99   1.258       .  A
O87         Co92   2.003       .  S
O88          C98   1.274       .  A
O88         Co91   2.008       .  S
O89          C96   1.242       .  A
O89         Co94   1.931       .  S
O90          C97   1.260       .  A
O90         Co93   1.888       .  S
Co91         O95   2.028       .  S
Co92         O95   1.992       .  S
Co93         O95   2.017       .  S
Co94         O95   2.035       .  S
C96         C163   1.470       .  S
C97         C223   1.477       .  S
C98         C232   1.469       .  S
C99         C151   1.476       .  S
C100        C101   1.408       .  A
C100        C105   1.420       .  A
C101        C102   1.405       .  A
C101        H110   1.083       .  S
C102        C103   1.414       .  A
C102        S106   1.804       .  S
C103        C104   1.405       .  A
C104        C105   1.399       .  A
C104        H111   1.084       .  S
C105        S107   1.803       .  S
S106        H109   1.406       .  S
S107        H108   1.408       .  S
C112        C113   1.405       .  A
C112        C117   1.416       .  A
C113        C114   1.415       .  A
C113        H122   1.084       .  S
C114        C115   1.425       .  A
C114        S118   1.802       .  S
C115        C116   1.402       .  A
C116        C117   1.386       .  A
C116        H123   1.082       .  S
C117        S119   1.797       .  S
S118        H121   1.407       .  S
S119        H120   1.405       .  S
C124        C125   1.409       .  A
C124        C372   1.418   1_554  A
C125        C126   1.397   1_455  A
C125        H134   1.083       .  S
C126        C127   1.411   1_655  A
C126        S616   1.805       .  S
C127        C371   1.403   1_554  A
C127        C536   1.490   1_455  S
C128        C129   1.400       .  A
C128        C370   1.403       .  A
C128        H135   1.083       .  S
C129        C367   1.418       .  A
C129        S131   1.810       .  S
S130        C612   1.805       .  S
S130        H133   1.406       .  S
S131        H132   1.407       .  S
C136        C137   1.402   1_556  A
C136        C384   1.412       .  A
C137        C138   1.399       .  A
C137        H146   1.084       .  S
C138        C139   1.419   1_554  A
C138        S142   1.802       .  S
C139        C383   1.410       .  A
C140        C141   1.398       .  A
C140        C382   1.410       .  A
C140        H147   1.082       .  S
C141        C379   1.412       .  A
C141        S143   1.805       .  S
S142        H145   1.407       .  S
S143        H144   1.406       .  S
C148        C149   1.409       .  A
C148        C153   1.410       .  A
C149        C150   1.392       .  A
C149        H158   1.085       .  S
C150        C151   1.412       .  A
C150        S154   1.801       .  S
C151        C152   1.408       .  A
C152        C153   1.399       .  A
C152        H159   1.084       .  S
C153        S155   1.799       .  S
S154        H157   1.389       .  S
S155        H156   1.406       .  S
C160        C161   1.403       .  A
C160        C165   1.410       .  A
C161        C162   1.400       .  A
C161        H170   1.084       .  S
C162        C163   1.418       .  A
C162        S166   1.809       .  S
C163        C164   1.404       .  A
C164        C165   1.393       .  A
C164        H171   1.082       .  S
C165        S167   1.804       .  S
S166        H169   1.398       .  S
S167        H168   1.407       .  S
C172        C177   1.419   1_556  A
C172        C416   1.409       .  A
C173        C174   1.398       .  A
C173        C415   1.409       .  A
C173        H182   1.082       .  S
C174        C418   1.413       .  A
C174        S178   1.806       .  S
C175        C176   1.402   1_556  A
C175        C417   1.413       .  A
C176        C177   1.396       .  A
C176        H183   1.084       .  S
C177        S179   1.806       .  S
S178        H181   1.406       .  S
S179        H180   1.407       .  S
C184        C185   1.395       .  A
C184        C189   1.413       .  A
C185        C186   1.393       .  A
C185        H194   1.083       .  S
C186        C187   1.422       .  A
C186        S190   1.811       .  S
C187        C188   1.405       .  A
C188        C189   1.403       .  A
C188        H195   1.084       .  S
C189        S191   1.804       .  S
S190        H193   1.407       .  S
S191        H192   1.405       .  S
C196        C197   1.406       .  A
C196        C201   1.415       .  A
C197        C198   1.399       .  A
C197        H206   1.084       .  S
C198        C199   1.410       .  A
C198        S202   1.803       .  S
C199        C200   1.405       .  A
C200        C201   1.402       .  A
C200        H207   1.084       .  S
C201        S203   1.804       .  S
S202        H205   1.408       .  S
S203        H204   1.407       .  S
C208        C209   1.406   1_556  A
C208        C456   1.418       .  A
C209        C210   1.399       .  A
C209        H218   1.084       .  S
C210        C211   1.414   1_554  A
C210        S214   1.805       .  S
C211        C455   1.402       .  A
C212        C213   1.397       .  A
C212        C454   1.402       .  A
C212        H219   1.084       .  S
C213        C451   1.418       .  A
C213        S215   1.804       .  S
S214        H217   1.406       .  S
S215        H216   1.407       .  S
C220        C221   1.400       .  A
C220        C225   1.414       .  A
C221        C222   1.395       .  A
C221        H230   1.084       .  S
C222        C223   1.417       .  A
C222        S226   1.802       .  S
C223        C224   1.403       .  A
C224        C225   1.399       .  A
C224        H231   1.084       .  S
C225        S227   1.804       .  S
S226        H229   1.403       .  S
S227        H228   1.406       .  S
C232        C233   1.401       .  A
C232        C237   1.408       .  A
C233        C234   1.398       .  A
C233        H242   1.082       .  S
C234        C235   1.417       .  A
C234        S238   1.805       .  S
C235        C236   1.407       .  A
C236        C237   1.397       .  A
C236        H243   1.082       .  S
C237        S239   1.798       .  S
S238        H241   1.407       .  S
S239        H240   1.406       .  S
C244        C249   1.405       .  A
C244        C451   1.487       .  S
C245        C246   1.408       .  A
C245        H250   1.083       .  S
C246        C247   1.404       .  A
C246        C478   1.490       .  S
C247        H251   1.083       .  S
C248        C249   1.399       .  A
C248        C463   1.477       .  S
C249        H252   1.084       .  S
C253        C258   1.406       .  A
C253        C415   1.493       .  S
C254        C255   1.406       .  A
C254        H259   1.082       .  S
C255        C256   1.402       .  A
C255        C439   1.487       .  S
C256        H260   1.084       .  S
C257        C258   1.393       .  A
C257        C427   1.472       .  S
C258        H261   1.082       .  S
C262        C267   1.417       .  A
C262        C382   1.497       .  S
C263        C264   1.400       .  A
C263        H268   1.082       .  S
C264        C265   1.389       .  A
C264        C403   1.477       .  S
C265        H269   1.084       .  S
C266        C267   1.405       .  A
C266        C391   1.485       .  S
C267        H270   1.082       .  S
N271        C276   1.354       .  A
N271        C275   1.352       .  A
N271        H303   1.037   1_565  S
N272        C279   1.353   1_545  A
N272        C280   1.354       .  A
N273        C278   1.354       .  A
N273        C277   1.353       .  A
N273        H304   1.037       .  S
N274        C767   1.351       .  A
N274        C768   1.350       .  A
C275        C283   1.386       .  A
C275        C291   1.415       .  A
C276        C778   1.419       .  A
C276        C284   1.388       .  A
C277        C285   1.390       .  A
C277        C294   1.421       .  A
C278        C293   1.415       .  A
C278        C286   1.384       .  A
C279        C291   1.418       .  A
C279        C287   1.387       .  A
C280        C294   1.418       .  A
C280        C288   1.387       .  A
C281        C289   1.388       .  A
C281        C292   1.414   1_545  A
C281        N760   1.351   1_455  A
C282        C290   1.385       .  A
C282        C779   1.412   1_455  A
C282        N760   1.350   1_455  A
C283        C284   1.373       .  A
C283        H295   1.082       .  S
C284        H782   1.081       .  S
C285        C286   1.371       .  A
C285        H297   1.080       .  S
C286        H298   1.082       .  S
C287        C288   1.371   1_565  A
C287        H299   1.082       .  S
C288        H300   1.081       .  S
C289        C290   1.365       .  A
C289        H301   1.080       .  S
C290        H302   1.082       .  S
C291        C454   1.490       .  S
C292        C762   1.419   1_455  A
C292        C418   1.489       .  S
C293        C768   1.412       .  A
C293        C856   1.490       .  S
C294        C379   1.492       .  S
H296        C770   1.081   1_455  S
C305        C310   1.407       .  A
C305        C367   1.492       .  S
C306        C307   1.405       .  A
C306        H311   1.078       .  S
C307        C308   1.414   1_556  A
C307        C358   1.506       .  S
C308        H312   1.082       .  S
C309        C310   1.400       .  A
C309        C346   1.494       .  S
C310        H313   1.083       .  S
O314        C322   1.257       .  A
O314       Co334   1.983       .  S
O315        C323   1.270       .  A
O315       Co335   1.984       .  S
O316        C324   1.303       .  A
O316       Co336   2.129       .  S
O317        C325   1.281       .  A
O317       Co337   2.068       .  S
O318        C324   1.257       .  A
O318       Co335   1.859       .  S
O319        C325   1.254       .  A
O319       Co334   1.955       .  S
O320        C323   1.274       .  A
O320       Co337   2.014       .  S
O321        C322   1.257       .  A
O321       Co336   2.001       .  S
C322        C442   1.477       .  S
C323        C343   1.497       .  S
C324        C430   1.481       .  S
C325        C355   1.488       .  S
O326        C339   1.271       .  A
O326       Co334   2.041       .  S
O327        C340   1.295       .  A
O327       Co335   2.107       .  S
O328        C341   1.268       .  A
O328       Co336   1.980       .  S
O329        C342   1.250       .  A
O329       Co337   1.968       .  S
O330        C342   1.258       .  A
O330       Co335   2.003       .  S
O331        C341   1.274       .  A
O331       Co334   2.008       .  S
O332        C339   1.242       .  A
O332       Co337   1.931       .  S
O333        C340   1.260       .  A
O333       Co336   1.888       .  S
Co334       O338   2.028       .  S
Co335       O338   1.992       .  S
Co336       O338   2.017       .  S
Co337       O338   2.035       .  S
C339        C406   1.470       .  S
C340        C466   1.477       .  S
C341        C475   1.469       .  S
C342        C394   1.476       .  S
C343        C344   1.408       .  A
C343        C348   1.420       .  A
C344        C345   1.405       .  A
C344        H353   1.083       .  S
C345        C346   1.414       .  A
C345        S349   1.804       .  S
C346        C347   1.405       .  A
C347        C348   1.399       .  A
C347        H354   1.084       .  S
C348        S350   1.803       .  S
S349        H352   1.406       .  S
S350        H351   1.408       .  S
C355        C356   1.405       .  A
C355        C360   1.416       .  A
C356        C357   1.415       .  A
C356        H365   1.084       .  S
C357        C358   1.425       .  A
C357        S361   1.802       .  S
C358        C359   1.402       .  A
C359        C360   1.386       .  A
C359        H366   1.082       .  S
C360        S362   1.797       .  S
S361        H364   1.407       .  S
S362        H363   1.405       .  S
C367        C368   1.409       .  A
C368        C369   1.397   1_455  A
C368        H377   1.083       .  S
C369        C370   1.411   1_655  A
C369        S859   1.805       .  S
C370        C779   1.490   1_455  S
C371        C372   1.400       .  A
C371        H378   1.083       .  S
C372        S374   1.810       .  S
S373        C855   1.805       .  S
S373        H376   1.406       .  S
S374        H375   1.407       .  S
C379        C380   1.402       .  A
C380        C381   1.399       .  A
C380        H389   1.084       .  S
C381        C382   1.419       .  A
C381        S385   1.802       .  S
C383        C384   1.398       .  A
C383        H390   1.082       .  S
C384        S386   1.805       .  S
S385        H388   1.407       .  S
S386        H387   1.406       .  S
C391        C392   1.409       .  A
C391        C396   1.410       .  A
C392        C393   1.392       .  A
C392        H401   1.085       .  S
C393        C394   1.412       .  A
C393        S397   1.801       .  S
C394        C395   1.408       .  A
C395        C396   1.399       .  A
C395        H402   1.084       .  S
C396        S398   1.799       .  S
S397        H400   1.389       .  S
S398        H399   1.406       .  S
C403        C404   1.403       .  A
C403        C408   1.410       .  A
C404        C405   1.400       .  A
C404        H413   1.084       .  S
C405        C406   1.418       .  A
C405        S409   1.809       .  S
C406        C407   1.404       .  A
C407        C408   1.393       .  A
C407        H414   1.082       .  S
C408        S410   1.804       .  S
S409        H412   1.398       .  S
S410        H411   1.407       .  S
C415        C420   1.419       .  A
C416        C417   1.398       .  A
C416        H425   1.082       .  S
C417        S421   1.806       .  S
C418        C419   1.402       .  A
C419        C420   1.396       .  A
C419        H426   1.084       .  S
C420        S422   1.806       .  S
S421        H424   1.406       .  S
S422        H423   1.407       .  S
C427        C428   1.395       .  A
C427        C432   1.413       .  A
C428        C429   1.393       .  A
C428        H437   1.083       .  S
C429        C430   1.422       .  A
C429        S433   1.811       .  S
C430        C431   1.405       .  A
C431        C432   1.403       .  A
C431        H438   1.084       .  S
C432        S434   1.804       .  S
S433        H436   1.407       .  S
S434        H435   1.405       .  S
C439        C440   1.406       .  A
C439        C444   1.415       .  A
C440        C441   1.399       .  A
C440        H449   1.084       .  S
C441        C442   1.410       .  A
C441        S445   1.803       .  S
C442        C443   1.405       .  A
C443        C444   1.402       .  A
C443        H450   1.084       .  S
C444        S446   1.804       .  S
S445        H448   1.408       .  S
S446        H447   1.407       .  S
C451        C452   1.406       .  A
C452        C453   1.399       .  A
C452        H461   1.084       .  S
C453        C454   1.414       .  A
C453        S457   1.805       .  S
C455        C456   1.397       .  A
C455        H462   1.084       .  S
C456        S458   1.804       .  S
S457        H460   1.406       .  S
S458        H459   1.407       .  S
C463        C464   1.400       .  A
C463        C468   1.414       .  A
C464        C465   1.395       .  A
C464        H473   1.084       .  S
C465        C466   1.417       .  A
C465        S469   1.802       .  S
C466        C467   1.403       .  A
C467        C468   1.399       .  A
C467        H474   1.084       .  S
C468        S470   1.804       .  S
S469        H472   1.403       .  S
S470        H471   1.406       .  S
C475        C476   1.401       .  A
C475        C480   1.408       .  A
C476        C477   1.398       .  A
C476        H485   1.082       .  S
C477        C478   1.417       .  A
C477        S481   1.805       .  S
C478        C479   1.407       .  A
C479        C480   1.397       .  A
C479        H486   1.082       .  S
C480        S482   1.798       .  S
S481        H484   1.407       .  S
S482        H483   1.406       .  S
C487        C731   1.408       .  A
C487        C492   1.405   1_556  A
C487        C694   1.487       .  S
C488        C730   1.408       .  A
C488        C489   1.408       .  A
C488        H493   1.083       .  S
C489        C490   1.404       .  A
C489        C721   1.490       .  S
C490        C734   1.397       .  A
C490        H494   1.083       .  S
C491        C733   1.397   1_554  A
C491        C492   1.399       .  A
C491        C706   1.477       .  S
C492        H495   1.084       .  S
C496        C740   1.413       .  A
C496        C501   1.406   1_556  A
C496        C658   1.493       .  S
C497        C739   1.413       .  A
C497        C498   1.406       .  A
C497        H502   1.082       .  S
C498        C499   1.402       .  A
C498        C682   1.487       .  S
C499        C743   1.399       .  A
C499        H503   1.084       .  S
C500        C742   1.399   1_554  A
C500        C501   1.393       .  A
C500        C670   1.472       .  S
C501        H504   1.082       .  S
C505        C749   1.415       .  A
C505        C510   1.417   1_556  A
C505        C625   1.497       .  S
C506        C748   1.415       .  A
C506        C507   1.400       .  A
C506        H511   1.082       .  S
C507        C508   1.389       .  A
C507        C646   1.477       .  S
C508        C752   1.392       .  A
C508        H512   1.084       .  S
C509        C751   1.392   1_554  A
C509        C510   1.405       .  A
C509        C634   1.485       .  S
C510        H513   1.082       .  S
N514        C519   1.354       .  A
N514        C518   1.352       .  A
N514        H546   1.037   1_566  S
N515        C522   1.353   1_546  A
N515        C523   1.354   1_556  A
N516        C521   1.354   1_554  A
N516        C520   1.353   1_554  A
N516        H547   1.037       .  S
C518        C526   1.386       .  A
C518        C534   1.415       .  A
C519        C527   1.388       .  A
C520        C528   1.390       .  A
C520        C537   1.421       .  A
C521        C536   1.415   1_556  A
C521        C529   1.384       .  A
C522        C534   1.418   1_554  A
C522        C530   1.387       .  A
C523        C537   1.418   1_554  A
C523        C531   1.387       .  A
C524        C532   1.388       .  A
C524        C535   1.414   1_544  A
C525        C533   1.385       .  A
C526        C527   1.373       .  A
C526        H538   1.082       .  S
C528        C529   1.371       .  A
C528        H540   1.080       .  S
C529        H541   1.082       .  S
C530        C531   1.371   1_565  A
C530        H542   1.082       .  S
C531        H543   1.081       .  S
C532        C533   1.365       .  A
C532        H544   1.080       .  S
C533        H545   1.082       .  S
C534        C697   1.490       .  S
C535        C661   1.489       .  S
C537        C622   1.492       .  S
C548        C792   1.409   1_554  A
C548        C553   1.407       .  A
C548        C610   1.492       .  S
C549        C791   1.409       .  A
C549        C550   1.405       .  A
C549        H554   1.078       .  S
C550        C551   1.414       .  A
C550        C601   1.506       .  S
C551        C795   1.403       .  A
C551        H555   1.082       .  S
C552        C794   1.403       .  A
C552        C553   1.400       .  A
C552        C589   1.494       .  S
C553        H556   1.083       .  S
O557        C565   1.257       .  A
O557       Co577   1.983       .  S
O558        C566   1.270       .  A
O558       Co578   1.984       .  S
O559        C567   1.303       .  A
O559       Co579   2.129       .  S
O560        C568   1.281       .  A
O560       Co580   2.068       .  S
O561        C567   1.257       .  A
O561       Co578   1.859       .  S
O562        C568   1.254       .  A
O562       Co577   1.955       .  S
O563        C566   1.274       .  A
O563       Co580   2.014       .  S
O564        C565   1.257       .  A
O564       Co579   2.001       .  S
C565        C685   1.477       .  S
C566        C586   1.497       .  S
C567        C673   1.481       .  S
C568        C598   1.488       .  S
O569        C582   1.271       .  A
O569       Co577   2.041       .  S
O570        C583   1.295       .  A
O570       Co578   2.107       .  S
O571        C584   1.268       .  A
O571       Co579   1.980       .  S
O572        C585   1.250       .  A
O572       Co580   1.968       .  S
O573        C585   1.258       .  A
O573       Co578   2.003       .  S
O574        C584   1.274       .  A
O574       Co577   2.008       .  S
O575        C582   1.242       .  A
O575       Co580   1.931       .  S
O576        C583   1.260       .  A
O576       Co579   1.888       .  S
Co577       O581   2.028       .  S
Co578       O581   1.992       .  S
Co579       O581   2.017       .  S
Co580       O581   2.035       .  S
C582        C649   1.470       .  S
C583        C709   1.477       .  S
C584        C718   1.469       .  S
C585        C637   1.476       .  S
C586        C587   1.408       .  A
C586        C591   1.420       .  A
C587        C588   1.405       .  A
C587        H596   1.083       .  S
C588        C589   1.414       .  A
C588        S592   1.804       .  S
C589        C590   1.405       .  A
C590        C591   1.399       .  A
C590        H597   1.084       .  S
C591        S593   1.803       .  S
S592        H595   1.406       .  S
S593        H594   1.408       .  S
C598        C599   1.405       .  A
C598        C603   1.416       .  A
C599        C600   1.415       .  A
C599        H608   1.084       .  S
C600        C601   1.425       .  A
C600        S604   1.802       .  S
C601        C602   1.402       .  A
C602        C603   1.386       .  A
C602        H609   1.082       .  S
C603        S605   1.797       .  S
S604        H607   1.407       .  S
S605        H606   1.405       .  S
C610        C611   1.409       .  A
C610        C858   1.418   1_554  A
C611        C612   1.397       .  A
C611        H620   1.083       .  S
C612        C613   1.411       .  A
C613        C857   1.403   1_554  A
C614        C856   1.403       .  A
C614        C615   1.400       .  A
C614        H621   1.083       .  S
C615        C853   1.418       .  A
C615        S617   1.810       .  S
S616        H619   1.406       .  S
S617        H618   1.407       .  S
C622        C623   1.402   1_556  A
C622        C870   1.412       .  A
C623        C624   1.399       .  A
C623        H632   1.084       .  S
C624        C625   1.419   1_554  A
C624        S628   1.802       .  S
C625        C869   1.410       .  A
C626        C868   1.410       .  A
C626        C627   1.398       .  A
C626        H633   1.082       .  S
C627        C865   1.412       .  A
C627        S629   1.805       .  S
S628        H631   1.407       .  S
S629        H630   1.406       .  S
C634        C635   1.409       .  A
C634        C639   1.410       .  A
C635        C636   1.392       .  A
C635        H644   1.085       .  S
C636        C637   1.412       .  A
C636        S640   1.801       .  S
C637        C638   1.408       .  A
C638        C639   1.399       .  A
C638        H645   1.084       .  S
C639        S641   1.800       .  S
S640        H643   1.389       .  S
S641        H642   1.406       .  S
C646        C647   1.403       .  A
C646        C651   1.410       .  A
C647        C648   1.400       .  A
C647        H656   1.084       .  S
C648        C649   1.418       .  A
C648        S652   1.809       .  S
C649        C650   1.404       .  A
C650        C651   1.393       .  A
C650        H657   1.082       .  S
C651        S653   1.804       .  S
S652        H655   1.398       .  S
S653        H654   1.407       .  S
C658        C902   1.409       .  A
C658        C663   1.419   1_556  A
C659        C901   1.409       .  A
C659        C660   1.398       .  A
C659        H668   1.082       .  S
C660        C904   1.413       .  A
C660        S664   1.806       .  S
C661        C903   1.413       .  A
C661        C662   1.402   1_556  A
C662        C663   1.396       .  A
C662        H669   1.084       .  S
C663        S665   1.806       .  S
S664        H667   1.406       .  S
S665        H666   1.407       .  S
C670        C671   1.395       .  A
C670        C675   1.413       .  A
C671        C672   1.393       .  A
C671        H680   1.083       .  S
C672        C673   1.422       .  A
C672        S676   1.811       .  S
C673        C674   1.405       .  A
C674        C675   1.403       .  A
C674        H681   1.084       .  S
C675        S677   1.804       .  S
S676        H679   1.407       .  S
S677        H678   1.405       .  S
C682        C683   1.406       .  A
C682        C687   1.415       .  A
C683        C684   1.399       .  A
C683        H692   1.084       .  S
C684        C685   1.410       .  A
C684        S688   1.803       .  S
C685        C686   1.405       .  A
C686        C687   1.402       .  A
C686        H693   1.084       .  S
C687        S689   1.804       .  S
S688        H691   1.408       .  S
S689        H690   1.407       .  S
C694        C695   1.406   1_556  A
C694        C942   1.418       .  A
C695        C696   1.399       .  A
C695        H704   1.084       .  S
C696        C697   1.414   1_554  A
C696        S700   1.805       .  S
C697        C941   1.402       .  A
C698        C940   1.402       .  A
C698        C699   1.397       .  A
C698        H705   1.084       .  S
C699        C937   1.418       .  A
C699        S701   1.804       .  S
S700        H703   1.406       .  S
S701        H702   1.407       .  S
C706        C707   1.400       .  A
C706        C711   1.414       .  A
C707        C708   1.395       .  A
C707        H716   1.084       .  S
C708        C709   1.417       .  A
C708        S712   1.802       .  S
C709        C710   1.403       .  A
C710        C711   1.399       .  A
C710        H717   1.084       .  S
C711        S713   1.804       .  S
S712        H715   1.403       .  S
S713        H714   1.406       .  S
C718        C719   1.401       .  A
C718        C723   1.408       .  A
C719        C720   1.398       .  A
C719        H728   1.082       .  S
C720        C721   1.417       .  A
C720        S724   1.805       .  S
C721        C722   1.407       .  A
C722        C723   1.397       .  A
C722        H729   1.082       .  S
C723        S725   1.798       .  S
S724        H727   1.407       .  S
S725        H726   1.406       .  S
C730        C735   1.405       .  A
C730        C937   1.487       .  S
C731        C732   1.408       .  A
C731        H736   1.083       .  S
C732        C733   1.404       .  A
C732        C964   1.490       .  S
C733        H737   1.083       .  S
C734        C735   1.399       .  A
C734        C949   1.477       .  S
C735        H738   1.084       .  S
C739        C744   1.406       .  A
C739        C901   1.493       .  S
C740        C741   1.406       .  A
C740        H745   1.082       .  S
C741        C742   1.402       .  A
C741        C925   1.487       .  S
C742        H746   1.084       .  S
C743        C744   1.393       .  A
C743        C913   1.472       .  S
C744        H747   1.082       .  S
C748        C753   1.417       .  A
C748        C868   1.497       .  S
C749        C750   1.400       .  A
C749        H754   1.082       .  S
C750        C751   1.389       .  A
C750        C889   1.477       .  S
C751        H755   1.084       .  S
C752        C753   1.405       .  A
C752        C877   1.485       .  S
C753        H756   1.082       .  S
N757        C762   1.354       .  A
N757        C761   1.352       .  A
N757        H789   1.037   1_565  S
N758        C765   1.353   1_545  A
N758        C766   1.354       .  A
N759        C764   1.354       .  A
N759        C763   1.353       .  A
N759        H790   1.037       .  S
C761        C769   1.386       .  A
C761        C777   1.415       .  A
C762        C770   1.388       .  A
C763        C771   1.390       .  A
C763        C780   1.421       .  A
C764        C779   1.415       .  A
C764        C772   1.384       .  A
C765        C777   1.418       .  A
C765        C773   1.387       .  A
C766        C780   1.418       .  A
C766        C774   1.387       .  A
C767        C775   1.388       .  A
C767        C778   1.414   1_545  A
C768        C776   1.385       .  A
C769        C770   1.373       .  A
C769        H781   1.082       .  S
C771        C772   1.371       .  A
C771        H783   1.080       .  S
C772        H784   1.082       .  S
C773        C774   1.371   1_565  A
C773        H785   1.082       .  S
C774        H786   1.081       .  S
C775        C776   1.365       .  A
C775        H787   1.080       .  S
C776        H788   1.082       .  S
C777        C940   1.490       .  S
C778        C904   1.489       .  S
C780        C865   1.492       .  S
C791        C796   1.407       .  A
C791        C853   1.492       .  S
C792        C793   1.405       .  A
C792        H797   1.078       .  S
C793        C794   1.414   1_556  A
C793        C844   1.506       .  S
C794        H798   1.082       .  S
C795        C796   1.400       .  A
C795        C832   1.494       .  S
C796        H799   1.083       .  S
O800        C808   1.257       .  A
O800       Co820   1.983       .  S
O801        C809   1.270       .  A
O801       Co821   1.984       .  S
O802        C810   1.303       .  A
O802       Co822   2.129       .  S
O803        C811   1.281       .  A
O803       Co823   2.068       .  S
O804        C810   1.257       .  A
O804       Co821   1.859       .  S
O805        C811   1.254       .  A
O805       Co820   1.955       .  S
O806        C809   1.274       .  A
O806       Co823   2.014       .  S
O807        C808   1.257       .  A
O807       Co822   2.001       .  S
C808        C928   1.477       .  S
C809        C829   1.497       .  S
C810        C916   1.481       .  S
C811        C841   1.488       .  S
O812        C825   1.271       .  A
O812       Co820   2.041       .  S
O813        C826   1.295       .  A
O813       Co821   2.107       .  S
O814        C827   1.268       .  A
O814       Co822   1.980       .  S
O815        C828   1.250       .  A
O815       Co823   1.968       .  S
O816        C828   1.258       .  A
O816       Co821   2.003       .  S
O817        C827   1.274       .  A
O817       Co820   2.008       .  S
O818        C825   1.242       .  A
O818       Co823   1.931       .  S
O819        C826   1.260       .  A
O819       Co822   1.888       .  S
Co820       O824   2.028       .  S
Co821       O824   1.992       .  S
Co822       O824   2.017       .  S
Co823       O824   2.035       .  S
C825        C892   1.470       .  S
C826        C952   1.477       .  S
C827        C961   1.469       .  S
C828        C880   1.476       .  S
C829        C830   1.408       .  A
C829        C834   1.420       .  A
C830        C831   1.405       .  A
C830        H839   1.083       .  S
C831        C832   1.414       .  A
C831        S835   1.804       .  S
C832        C833   1.405       .  A
C833        C834   1.399       .  A
C833        H840   1.084       .  S
C834        S836   1.803       .  S
S835        H838   1.406       .  S
S836        H837   1.408       .  S
C841        C842   1.405       .  A
C841        C846   1.416       .  A
C842        C843   1.415       .  A
C842        H851   1.084       .  S
C843        C844   1.425       .  A
C843        S847   1.802       .  S
C844        C845   1.402       .  A
C845        C846   1.386       .  A
C845        H852   1.082       .  S
C846        S848   1.797       .  S
S847        H850   1.407       .  S
S848        H849   1.405       .  S
C853        C854   1.409       .  A
C854        C855   1.397       .  A
C854        H863   1.083       .  S
C855        C856   1.410       .  A
C857        C858   1.400       .  A
C857        H864   1.083       .  S
C858        S860   1.810       .  S
S859        H862   1.406       .  S
S860        H861   1.407       .  S
C865        C866   1.402       .  A
C866        C867   1.399       .  A
C866        H875   1.084       .  S
C867        C868   1.419       .  A
C867        S871   1.802       .  S
C869        C870   1.398       .  A
C869        H876   1.082       .  S
C870        S872   1.805       .  S
S871        H874   1.407       .  S
S872        H873   1.406       .  S
C877        C878   1.409       .  A
C877        C882   1.410       .  A
C878        C879   1.392       .  A
C878        H887   1.085       .  S
C879        C880   1.412       .  A
C879        S883   1.801       .  S
C880        C881   1.408       .  A
C881        C882   1.399       .  A
C881        H888   1.084       .  S
C882        S884   1.799       .  S
S883        H886   1.389       .  S
S884        H885   1.406       .  S
C889        C890   1.403       .  A
C889        C894   1.410       .  A
C890        C891   1.400       .  A
C890        H899   1.084       .  S
C891        C892   1.418       .  A
C891        S895   1.809       .  S
C892        C893   1.404       .  A
C893        C894   1.393       .  A
C893        H900   1.082       .  S
C894        S896   1.804       .  S
S895        H898   1.398       .  S
S896        H897   1.407       .  S
C901        C906   1.419       .  A
C902        C903   1.398       .  A
C902        H911   1.082       .  S
C903        S907   1.806       .  S
C904        C905   1.402       .  A
C905        C906   1.396       .  A
C905        H912   1.084       .  S
C906        S908   1.806       .  S
S907        H910   1.406       .  S
S908        H909   1.407       .  S
C913        C914   1.395       .  A
C913        C918   1.413       .  A
C914        C915   1.393       .  A
C914        H923   1.083       .  S
C915        C916   1.422       .  A
C915        S919   1.811       .  S
C916        C917   1.405       .  A
C917        C918   1.403       .  A
C917        H924   1.084       .  S
C918        S920   1.804       .  S
S919        H922   1.407       .  S
S920        H921   1.405       .  S
C925        C926   1.406       .  A
C925        C930   1.415       .  A
C926        C927   1.399       .  A
C926        H935   1.084       .  S
C927        C928   1.410       .  A
C927        S931   1.803       .  S
C928        C929   1.405       .  A
C929        C930   1.402       .  A
C929        H936   1.084       .  S
C930        S932   1.804       .  S
S931        H934   1.408       .  S
S932        H933   1.407       .  S
C937        C938   1.406       .  A
C938        C939   1.399       .  A
C938        H947   1.084       .  S
C939        C940   1.414       .  A
C939        S943   1.805       .  S
C941        C942   1.397       .  A
C941        H948   1.084       .  S
C942        S944   1.804       .  S
S943        H946   1.406       .  S
S944        H945   1.407       .  S
C949        C950   1.400       .  A
C949        C954   1.414       .  A
C950        C951   1.395       .  A
C950        H959   1.084       .  S
C951        C952   1.417       .  A
C951        S955   1.802       .  S
C952        C953   1.403       .  A
C953        C954   1.398       .  A
C953        H960   1.084       .  S
C954        S956   1.804       .  S
S955        H958   1.403       .  S
S956        H957   1.406       .  S
C961        C962   1.401       .  A
C961        C966   1.408       .  A
C962        C963   1.398       .  A
C962        H971   1.082       .  S
C963        C964   1.417       .  A
C963        S967   1.805       .  S
C964        C965   1.407       .  A
C965        C966   1.397       .  A
C965        H972   1.082       .  S
C966        S968   1.798       .  S
S967        H970   1.407       .  S
S968        H969   1.406       .  S
