geometry optimzed in LAMMPS
_audit_creation_date              2020-11-30 
_audit_creation_method            'lammps2cif' 
_symmetry_space_group_name_H-M    'P1' 
_symmetry_Int_Tables_number       1 
_symmetry_cell_setting            triclinic 
loop_ 
_symmetry_equiv_pos_as_xyz 
  x,y,z 
_cell_length_a                    31.743963402706157 
_cell_length_b                    31.88543515163677 
_cell_length_c                    25.571135994430584 
_cell_angle_alpha                 90.94154563147298 
_cell_angle_beta                  90.24754394200579 
_cell_angle_gamma                 120.03675754952182 
loop_ 
_atom_site_label 
_atom_site_type_symbol 
_atom_site_fract_x 
_atom_site_fract_y 
_atom_site_fract_z 
_atom_site_charge 
C1          C  0.82116095  0.82263328  0.76219007     0.42660
N2          N  0.80058758  0.74779530  0.76082016     0.01550
C3          C  0.94284040  0.65449181  0.85301474    -0.06330
H4          H  0.02077195  0.77184366  0.70986730     0.07040
C5          C  0.88411908  0.66399519  0.58180131    -0.06680
Co6        Co  0.87106422  0.72952901  0.81983950     0.74180
N7          N  0.95300473  0.74629922  0.75049348    -0.25860
Co8        Co  0.91498881  0.67100938  0.74118652     0.74070
C9          C  0.93772432  0.68991419  0.58063395     0.42760
N10         N  0.77775481  0.65805898  0.63902421     0.01160
N11         N  0.91389490  0.67657679  0.66036299     0.01270
N12         N  0.91293139  0.69274245  0.90219260    -0.46710
H13         H  0.89172345  0.84406125  0.80865103     0.07030
N14         N  0.93608689  0.76843297  0.78053483     0.01550
N15         N  0.87470246  0.59548196  0.73103252     0.01290
C16         C  0.85283248  0.51960697  0.72605197     0.42900
N17         N  0.76073112  0.67885553  0.67096187    -0.25310
C18         C  0.79723453  0.69041592  0.90954476    -0.06230
N19         N  0.78612022  0.77821491  0.74612511    -0.46420
N20         N  0.88770427  0.56356646  0.74478718    -0.46640
C21         C  0.74436484  0.66716703  0.91379276     0.42670
N22         N  0.89914774  0.68911013  0.85262950     0.01540
N23         N  0.72476497  0.59846277  0.74199641    -0.25340
N24         N  0.84275136  0.76944612  0.78612369    -0.25830
N25         N  0.74113161  0.57659751  0.71069093     0.01180
H26         H  0.66027535  0.57230112  0.78875041     0.07070
H27         H  0.78530708  0.50299360  0.67566443     0.07110
N28         N  0.91662088  0.66735031  0.82275247    -0.25880
N29         N  0.87293459  0.65684691  0.63279778    -0.25490
N30         N  0.76351735  0.66854942  0.83287519     0.01550
C31         C  0.00605329  0.82506346  0.75747928     0.42940
C32         C  0.74121124  0.70004524  0.64278136    -0.06740
N33         N  0.83380530  0.57537612  0.70331075    -0.25490
H34         H  0.85779354  0.65093905  0.55002747     0.07090
N35         N  0.96691027  0.81544442  0.78626621    -0.46710
H36         H  0.72391366  0.71928309  0.65846971     0.07080
C37         C  0.67499676  0.51933349  0.74099480     0.42780
C38         C  0.85896731  0.81712395  0.78856242    -0.06240
Co39       Co  0.76166887  0.67316852  0.75173261     0.73820
N40         N  0.77012578  0.66345284  0.58902707    -0.46430
C41         C  0.94046395  0.67159421  0.90589248     0.43040
N42         N  0.72612267  0.65542421  0.86441728    -0.46420
Co43       Co  0.80603437  0.61629718  0.67020988     0.73890
C44         C  0.81713027  0.52769697  0.69837787    -0.06750
C45         C  0.99700249  0.77935783  0.73342291    -0.06310
N46         N  0.80556327  0.69020918  0.85836056    -0.25840
N47         N  0.95299962  0.69644825  0.63092742    -0.46600
H48         H  0.96565038  0.64061377  0.83880702     0.07050
C49         C  0.68268459  0.56517993  0.76247899    -0.06720
Cl50       Cl  0.83844806  0.67233714  0.74573311    -0.49720
C51         C  0.74642999  0.68895726  0.58865400     0.42810
H52         H  0.82497179  0.71022572  0.93916926     0.07020
N53         N  0.71205682  0.52897006  0.70858397    -0.46430
C54         C  0.94868820  0.26096262  0.58860199     0.42660
N55         N  0.92460158  0.24588617  0.66806904     0.01550
C56         C  0.78478541  0.01498907  0.76865980    -0.06330
H57         H  0.69214107  0.04540205  0.64406730     0.07040
C58         C  0.72077786  0.20144708  0.77601257    -0.06680
Co59       Co  0.87276328  0.13902436  0.68535351     0.74180
N60         N  0.76590711  0.09620939  0.66834936    -0.25860
Co61       Co  0.76462327  0.09987924  0.75023668     0.74070
C62         C  0.67852684  0.16529661  0.74606747     0.42760
N63         N  0.84803780  0.27513436  0.77677451     0.01160
N64         N  0.73154765  0.14241366  0.75061455     0.01270
N65         N  0.85543662  0.04249962  0.72541773    -0.46710
H66         H  0.90899130  0.18011734  0.56586470     0.07030
N67         N  0.80777697  0.11307486  0.64410536     0.01550
N68         N  0.76538765  0.10271173  0.83169732     0.01290
C69         C  0.75425259  0.08122141  0.91174872     0.42900
N70         N  0.88850860  0.28984427  0.75014182    -0.25310
C71         C  0.96701160  0.14708518  0.73463661    -0.06230
N72         N  0.95285856  0.28145618  0.63649092    -0.46420
N73         N  0.74579452  0.06439089  0.86197208    -0.46640
C74         C  0.00815184  0.18389553  0.76557705     0.42670
N75         N  0.84093675  0.07476740  0.72613494     0.01540
N76         N  0.92434705  0.25296701  0.83038956    -0.25340
N77         N  0.90433146  0.20308116  0.64420412    -0.25830
N78         N  0.88431882  0.23711982  0.85795739     0.01180
H79         H  0.00058970  0.28828368  0.85110051     0.07070
H80         H  0.79412070  0.16072824  0.94166012     0.07110
N81         N  0.79945724  0.05942374  0.75059977    -0.25880
N82         N  0.75134347  0.18390847  0.77739379    -0.25490
N83         N  0.95759839  0.20843299  0.75160986     0.01550
C84         C  0.75448187  0.06952443  0.58502007     0.42940
C85         C  0.90245835  0.33379442  0.73109138    -0.06740
N86         N  0.78633926  0.14425204  0.85842865    -0.25490
H87         H  0.72610496  0.23377233  0.79639601     0.07090
N88         N  0.80238578  0.09823736  0.59483338    -0.46710
H89         H  0.93529098  0.35566194  0.70939938     0.07080
C90         C  0.94264130  0.26598363  0.91428266     0.42780
C91         C  0.91640432  0.20901032  0.59368915    -0.06240
Co92       Co  0.92418229  0.25001874  0.74964506     0.73820
N93         N  0.83305972  0.30716971  0.77687693    -0.46430
C94         C  0.82241343  0.00405888  0.75222765     0.43040
N95         N  0.00025292  0.22125248  0.77362304    -0.46420
Co96       Co  0.81717306  0.21046104  0.81877047     0.73890
C97         C  0.78137130  0.13430289  0.90983573    -0.06750
C98         C  0.72986516  0.06858649  0.63397620    -0.06310
N99         N  0.93757573  0.16551835  0.72805708    -0.25840
N100        N  0.68764290  0.12960433  0.73187508    -0.46600
H101        H  0.75100896  0.99252191  0.78856159     0.07050
C102        C  0.96295599  0.27192378  0.86261107    -0.06720
Cl103      Cl  0.84441540  0.17501346  0.75082251    -0.49720
C104        C  0.86566983  0.34524154  0.74909233     0.42810
H105        H  0.96149219  0.11337667  0.71770194     0.07020
N106        N  0.89365430  0.24434536  0.90906662    -0.46430
C107        C  0.07577665  0.75467408  0.40936632     0.42660
N108        N  0.09892503  0.76411378  0.32930682     0.01550
C109        C  0.33150461  0.89372222  0.22853335    -0.06330
H110        H  0.28633484  0.99637566  0.34371695     0.07040
C111        C  0.14543599  0.95928661  0.21817821    -0.06680
Co112      Co  0.20673363  0.81289876  0.31715135     0.74180
N113        N  0.24955246  0.91983111  0.32542957    -0.25860
Co114      Co  0.24770794  0.91710816  0.24490498     0.74070
C115        C  0.18036443  0.00122599  0.24946195     0.42760
N116        N  0.07328781  0.83517132  0.21951754     0.01160
N117        N  0.20540002  0.95013092  0.24314388     0.01270
N118        N  0.30359856  0.82565953  0.27570314    -0.46710
H119        H  0.15596728  0.79069131  0.43894474     0.07030
N120        N  0.23355211  0.88088872  0.35414050     0.01550
N121        N  0.24549715  0.91531724  0.16363398     0.01290
C122        C  0.26380733  0.94064000  0.08534960     0.42900
N123        N  0.05799680  0.79501367  0.24575245    -0.25310
C124        C  0.19518249  0.71463004  0.28076230    -0.06230
N125        N  0.06012591  0.74615958  0.35918911    -0.46420
N126        N  0.28244478  0.94409253  0.13370019    -0.46640
C127        C  0.15812472  0.67119816  0.25264574     0.42670
N128        N  0.27214301  0.84154200  0.27536204     0.01540
N129        N  0.09510365  0.75692758  0.16661714    -0.25340
N130        N  0.14014654  0.78427535  0.35634593    -0.25830
N131        N  0.11092735  0.79667700  0.13927916     0.01180
H132        H  0.05138606  0.68108361  0.14635740     0.07070
H133        H  0.18346339  0.90040710  0.05919675     0.07110
N134        N  0.28762560  0.88130572  0.24794394    -0.25880
N135        N  0.16378847  0.92968052  0.21689533    -0.25490
N136        N  0.13768229  0.72564711  0.25201938     0.01550
C137        C  0.26341754  0.94070284  0.40868474     0.42940
C138        C  0.01585264  0.78350151  0.26840853    -0.06740
N139        N  0.20335607  0.89448018  0.13809036    -0.25490
H140        H  0.11294763  0.95279784  0.19736713     0.07090
N141        N  0.24121962  0.89177747  0.40493713    -0.46710
H142        H  0.99425769  0.75202420  0.29180832     0.07080
C143        C  0.07306924  0.73840612  0.08278518     0.42780
C144        C  0.12940039  0.77956019  0.40756446    -0.06240
Co145      Co  0.09705469  0.75964430  0.24818727     0.73820
N146        N  0.04336232  0.85266183  0.22314564    -0.46430
C147        C  0.34176284  0.85637874  0.24642024     0.43040
N148        N  0.12334567  0.68061520  0.23642058    -0.46420
Co149      Co  0.13755852  0.86393671  0.17753123     0.73890
C150        C  0.21139526  0.90746752  0.08803892    -0.06750
C151        C  0.26913644  0.95929224  0.35644269    -0.06310
N152        N  0.17916454  0.74600755  0.27864558    -0.25840
N153        N  0.21704334  0.99331693  0.26275929    -0.46600
H154        H  0.35391243  0.92558341  0.20597473     0.07050
C155        C  0.07130507  0.71834170  0.13428743    -0.06720
Cl156      Cl  0.17249060  0.83827788  0.24666053    -0.49720
C157        C  0.00707594  0.82234166  0.25442501     0.42810
H158        H  0.22689212  0.72057441  0.30286204     0.07020
N159        N  0.09786733  0.78715662  0.08926885    -0.46430
C160        C  0.49700869  0.33557349  0.75618249     0.42660
N161        N  0.42087540  0.28255077  0.75749633     0.01550
C162        C  0.31765934  0.04990042  0.85136634    -0.06330
H163        H  0.43579315  0.08852348  0.69845984     0.07040
C164        C  0.30818920  0.10422241  0.58964641    -0.06680
Co165      Co  0.40217211  0.19695391  0.82182972     0.74180
N166        N  0.41334329  0.12960253  0.74726310    -0.25860
Co167      Co  0.33741531  0.09288872  0.74457118     0.74070
C168        C  0.33167837  0.07526877  0.58234508     0.42760
N169        N  0.31646588  0.20902280  0.64694416     0.01160
N170        N  0.33554566  0.09539585  0.66356918     0.01270
N171        N  0.35715993  0.11481843  0.90597593    -0.46710
H172        H  0.51628702  0.28776403  0.80649697     0.07030
N173        N  0.43783071  0.16872936  0.77735783     0.01550
N174        N  0.26148970  0.05822809  0.74407549     0.01290
C175        C  0.18571993  0.00700829  0.75243158     0.42900
N176        N  0.34243658  0.25024226  0.67311269    -0.25310
C177        C  0.36321574  0.23564370  0.91386860    -0.06230
N178        N  0.45239084  0.32590850  0.74007607    -0.46420
N179        N  0.23092169  0.01490582  0.76256477    -0.46640
C180        C  0.33886767  0.26466291  0.91602097     0.42670
N181        N  0.36069073  0.12814531  0.85626519     0.01540
N182        N  0.27024126  0.21550401  0.75366403    -0.25340
N183        N  0.44198843  0.26314699  0.78474743    -0.25830
N184        N  0.24382568  0.17404683  0.72798509     0.01180
H185        H  0.25209788  0.26312348  0.79619835     0.07070
H186        H  0.16301981  0.05441355  0.70716213     0.07110
N187        N  0.33789430  0.09029018  0.82443486    -0.25880
N188        N  0.31184585  0.11441915  0.64090773    -0.25490
N189        N  0.34591719  0.24817341  0.83596787     0.01550
C190        C  0.49294795  0.15766731  0.74244042     0.42940
C191        C  0.35498763  0.28675853  0.63973859    -0.06740
N192        N  0.23887731  0.07844758  0.72146865    -0.25490
H193        H  0.28691556  0.11144479  0.56188323     0.07090
N194        N  0.48549700  0.18651743  0.77574139    -0.46710
H195        H  0.37252498  0.32473590  0.65084162     0.07080
C196        C  0.19215312  0.19197122  0.75843742     0.42780
C197        C  0.49007992  0.29368049  0.78567454    -0.06240
Co198      Co  0.34546478  0.25005627  0.75489850     0.73820
N199        N  0.30985380  0.21510198  0.59738087    -0.46430
C200        C  0.32987349  0.06535579  0.90579020     0.43040
N201        N  0.32940704  0.27051145  0.86625484    -0.46420
Co202      Co  0.27731226  0.14381577  0.68399438     0.73890
C203        C  0.19079716  0.04858485  0.72437944    -0.06750
C204        C  0.44508144  0.11928347  0.72417918    -0.06310
N205        N  0.36608314  0.22737066  0.86249316    -0.25840
N206        N  0.34669462  0.07035948  0.63020244    -0.46600
H207        H  0.29865045  0.01471393  0.83264037     0.07050
C208        C  0.24073957  0.22985553  0.77421827    -0.06720
Cl209      Cl  0.34068156  0.17100628  0.75134976    -0.49720
C210        C  0.33333003  0.26301628  0.58896828     0.42810
H211        H  0.37887958  0.22534982  0.94529229     0.07020
N212        N  0.19664239  0.15863806  0.72964012    -0.46430
C213        C  0.07750330  0.32949492  0.41337975     0.42660
N214        N  0.13691880  0.35788715  0.35976882     0.01550
C215        C  0.11206926  0.31357129  0.09107728    -0.06330
H216        H  0.06111020  0.16476671  0.19814667     0.07040
C217        C  0.23290282  0.23605037  0.26900136    -0.06680
Co218      Co  0.09956224  0.33602416  0.24894731     0.74180
N219        N  0.08538356  0.23948221  0.21777070    -0.25860
Co220      Co  0.15193820  0.27933656  0.18084218     0.74070
C221        C  0.19626335  0.18908889  0.24720296     0.42760
N222        N  0.25335517  0.34013203  0.33627770     0.01160
N223        N  0.18063747  0.24328264  0.22117191     0.01270
N224        N  0.07409457  0.34593082  0.13619948    -0.46710
H225        H  0.02074505  0.29565472  0.34670390     0.07030
N226        N  0.06543383  0.26086374  0.24405984     0.01550
N227        N  0.21921855  0.31918875  0.14523284     0.01290
C228        C  0.27732939  0.33591024  0.09164738     0.42900
N229        N  0.23403353  0.36169765  0.36346064    -0.25310
C230        C  0.12273805  0.44261497  0.23728306    -0.06230
N231        N  0.12663487  0.35565733  0.41033328    -0.46420
N232        N  0.22847086  0.31364626  0.09597365    -0.46640
C233        C  0.15958901  0.49002156  0.25848055     0.42670
N234        N  0.10180515  0.33671720  0.16738086     0.01540
N235        N  0.27223918  0.43842085  0.28786210    -0.25340
N236        N  0.09738961  0.33468665  0.33001724    -0.25830
N237        N  0.29129877  0.41675681  0.26042868     0.01180
H238        H  0.29904090  0.51226323  0.31156649     0.07070
H239        H  0.33507600  0.37117804  0.15726846     0.07110
N240        N  0.12296071  0.31608035  0.14197244    -0.25880
N241        N  0.22049640  0.26728115  0.25002487    -0.25490
N242        N  0.17598861  0.43552705  0.28363864     0.01550
C243        C  0.01303085  0.18506126  0.24759920     0.42940
C244        C  0.24098392  0.35769190  0.41468571    -0.06740
N245        N  0.25922912  0.34263287  0.17409015    -0.25490
H246        H  0.26456820  0.24564762  0.29321713     0.07090
N247        N  0.02212143  0.22969482  0.26245186    -0.46710
H248        H  0.23049815  0.37302847  0.44663590     0.07080
C249        C  0.34525463  0.49200681  0.25796224     0.42780
C250        C  0.05818613  0.31531167  0.36035930    -0.06240
Co251      Co  0.20507111  0.39908699  0.32473010     0.73820
N252        N  0.27342355  0.32125018  0.36604312    -0.46430
C253        C  0.07906007  0.33301336  0.08694964     0.43040
N254        N  0.19113015  0.48247472  0.28685087    -0.46420
Co255      Co  0.25670508  0.34204193  0.25533423     0.73890
C256        C  0.29782810  0.35538759  0.14353777    -0.06750
C257        C  0.05508680  0.19148400  0.21799040    -0.06310
N258        N  0.13587643  0.41137758  0.25495391    -0.25840
N259        N  0.16493280  0.19634712  0.21829021    -0.46600
H260        H  0.12015182  0.29383491  0.06179789     0.07050
C261        C  0.30398009  0.48599151  0.28933905    -0.06720
Cl262      Cl  0.17838707  0.33930681  0.25235541    -0.49720
C263        C  0.26748630  0.33100011  0.41595468     0.42810
H264        H  0.09024460  0.43283124  0.21445290     0.07020
N265        N  0.33491527  0.44727218  0.24216748    -0.46430
C266        C  0.83067371  0.82750137  0.24898380     0.42660
N267        N  0.75586858  0.80523228  0.23832756     0.01550
C268        C  0.66854285  0.94680075  0.13323809    -0.06330
H269        H  0.77359677  0.01789163  0.29512772     0.07040
C270        C  0.65510238  0.88221933  0.40449410    -0.06680
Co271      Co  0.74041954  0.87405815  0.17521765     0.74180
N272        N  0.75135764  0.95389598  0.24685590    -0.25860
Co273      Co  0.67538133  0.91545631  0.24644539     0.74070
C274        C  0.68148054  0.93515430  0.40811317     0.42760
N275        N  0.65904504  0.78024607  0.34886403     0.01160
N276        N  0.67493155  0.91320752  0.32765690     0.01270
N277        N  0.70989682  0.91790179  0.08869114    -0.46710
H278        H  0.85526917  0.89685445  0.20208222     0.07030
N279        N  0.77596206  0.93804418  0.21957405     0.01550
N280        N  0.59888848  0.87398850  0.24744778     0.01290
C281        C  0.52291760  0.85270873  0.24660648     0.42900
N282        N  0.68281730  0.76462251  0.31975489    -0.25310
C283        C  0.70441352  0.79871080  0.08188082    -0.06230
N284        N  0.78540546  0.79198810  0.25906163    -0.46420
N285        N  0.56766747  0.88760988  0.23179076    -0.46640
C286        C  0.67943032  0.74575494  0.07698103     0.42670
N287        N  0.70185794  0.90214416  0.13725754     0.01540
N288        N  0.60675785  0.72566678  0.24062551    -0.25340
N289        N  0.77890297  0.84690958  0.21438408    -0.25830
N290        N  0.58181269  0.74075488  0.26829490     0.01180
H291        H  0.58792063  0.65996945  0.19803775     0.07070
H292        H  0.50272540  0.78443939  0.29369231     0.07110
N293        N  0.67800442  0.91892612  0.16451820    -0.25880
N294        N  0.65279418  0.87201521  0.35293954    -0.25490
N295        N  0.68087029  0.76677474  0.15758041     0.01550
C296        C  0.83113993  0.00461277  0.25526499     0.42940
C297        C  0.70534740  0.74832240  0.35061566    -0.06740
N298        N  0.57728899  0.83259707  0.27266204    -0.25490
H299        H  0.63905108  0.85604030  0.43514074     0.07090
N300        N  0.82357831  0.96749874  0.22299193    -0.46710
H301        H  0.72587346  0.73162345  0.33727615     0.07080
C302        C  0.52878054  0.66968663  0.23962378     0.42780
C303        C  0.82689679  0.86405944  0.21908716    -0.06240
Co304      Co  0.68138209  0.76500786  0.23879466     0.73820
N305        N  0.66394839  0.77496259  0.39967620    -0.46430
C306        C  0.68905927  0.94553654  0.08223009     0.43040
N307        N  0.66709406  0.72881178  0.12582234    -0.46420
Co308      Co  0.61700584  0.80592025  0.31162073     0.73890
C309        C  0.52928572  0.81610607  0.27333824    -0.06750
C310        C  0.78309231  0.99595947  0.27068338    -0.06310
N311        N  0.70366350  0.80829990  0.13306001    -0.25840
N312        N  0.69295768  0.95172956  0.35921790    -0.46600
H313        H  0.65545002  0.97043839  0.14683285     0.07050
C314        C  0.57661987  0.68134805  0.22073964    -0.06720
Cl315      Cl  0.67822373  0.84007886  0.24277497    -0.49720
C316        C  0.69380735  0.75603176  0.40346693     0.42810
H317        H  0.72415549  0.82539499  0.05256817     0.07020
N318        N  0.53496083  0.70822483  0.26885473    -0.46430
C319        C  0.96631035  0.09512837  0.24970222    -0.12070
C320        C  0.96662282  0.13918966  0.25511567     0.04940
C321        C  0.92269713  0.13821408  0.26728114    -0.07350
C322        C  0.87951128  0.09363944  0.27091074    -0.08100
C323        C  0.87873129  0.04971806  0.26205849    -0.02650
C324        C  0.92315932  0.05044472  0.25387310     0.04170
N325        N  0.92536066  0.00647842  0.25103573     0.66670
H326        H  0.00006922  0.09534334  0.24294859     0.15570
H327        H  0.84587791  0.09373478  0.27735585     0.15280
N328        N  0.92029220  0.18176354  0.27274064     0.74380
O329        O  0.95631796  0.00386954  0.22240805    -0.39070
O330        O  0.90149728  0.97296722  0.28268996    -0.39020
O331        O  0.92897638  0.20871930  0.23391638    -0.39720
O332        O  0.90021954  0.18801341  0.31226961    -0.39790
C333        C  0.44053812  0.62499348  0.24961328    -0.12070
C334        C  0.48228850  0.62320773  0.23704540     0.04940
C335        C  0.47807179  0.57754414  0.22624963    -0.07350
C336        C  0.43293293  0.53497938  0.23205251    -0.08100
C337        C  0.39159011  0.53717024  0.24729795    -0.02650
C338        C  0.39572978  0.58294691  0.25379133     0.04170
N339        N  0.35436400  0.58779087  0.26279678     0.66670
H340        H  0.44244072  0.65962422  0.25587659     0.15570
H341        H  0.43055832  0.50018446  0.22563517     0.15280
N342        N  0.51894371  0.57333071  0.21072529     0.74380
O343        O  0.35519903  0.61474580  0.29997190    -0.39070
O344        O  0.31953886  0.56967498  0.23004143    -0.39020
O345        O  0.54014846  0.56092764  0.24367328    -0.39720
O346        O  0.52736547  0.57230040  0.16266965    -0.39790
C347        C  0.32645205  0.32941571  0.54579985    -0.12070
C348        C  0.32181409  0.28319819  0.54265127     0.04940
C349        C  0.30071594  0.25420791  0.49690614    -0.07350
C350        C  0.28282487  0.27090041  0.45721988    -0.08100
C351        C  0.28642976  0.31644016  0.46076809    -0.02650
C352        C  0.30976621  0.34680709  0.50495652     0.04170
N353        N  0.31890846  0.39574492  0.50803922     0.66670
H354        H  0.34312758  0.35222395  0.58016021     0.15570
H355        H  0.26617053  0.24801320  0.42277754     0.15280
N356        N  0.29725747  0.20779360  0.48975839     0.74380
O357        O  0.31917379  0.41471218  0.55185945    -0.39070
O358        O  0.33416648  0.42240526  0.46860844    -0.39020
O359        O  0.25856899  0.17225047  0.47151290    -0.39720
O360        O  0.33463747  0.20379877  0.49518600    -0.39790
C361        C  0.32936294  0.27101567  0.01234311    -0.12070
C362        C  0.32778502  0.28670496  0.96183660     0.04940
C363        C  0.31377544  0.32221037  0.95575227    -0.07350
C364        C  0.29999611  0.33949617  0.99924173    -0.08100
C365        C  0.30044394  0.32292331  0.04932856    -0.02650
C366        C  0.31588795  0.28867401  0.05608258     0.04170
N367        N  0.31499827  0.26890904  0.10623895     0.66670
H368        H  0.33985172  0.24387237  0.01792126     0.15570
H369        H  0.28762399  0.36525300  0.99360155     0.15280
N370        N  0.31246931  0.34075013  0.90564362     0.74380
O371        O  0.29341034  0.22352321  0.11108445    -0.39070
O372        O  0.34393256  0.29573621  0.14198617    -0.39020
O373        O  0.27268602  0.32284327  0.88053832    -0.39720
O374        O  0.34781262  0.38071056  0.89192826    -0.39790
C375        C  0.27469614  0.95326080  0.99158127    -0.12070
C376        C  0.28829427  0.97365444  0.04163927     0.04940
C377        C  0.31812838  0.02464890  0.04748032    -0.07350
C378        C  0.33148322  0.05370547  0.00268207    -0.08100
C379        C  0.31644397  0.03312319  0.95216110    -0.02650
C380        C  0.28817051  0.98169679  0.94733702     0.04170
N381        N  0.27092836  0.95669737  0.89829243     0.66670
H382        H  0.25176986  0.91428978  0.98663386     0.15570
H383        H  0.35350449  0.09272416  0.00753218     0.15280
N384        N  0.33335206  0.04776255  0.09809215     0.74380
O385        O  0.29326953  0.93764201  0.87697251    -0.39070
O386        O  0.22821978  0.94396647  0.88306335    -0.39020
O387        O  0.35784642  0.03675957  0.12807613    -0.39720
O388        O  0.33086263  0.08530247  0.10849523    -0.39790
C389        C  0.26707154  0.00326276  0.53679743    -0.12070
C390        C  0.31676615  0.03774844  0.54105748     0.04940
C391        C  0.34942057  0.03812768  0.50350770    -0.07350
C392        C  0.33067122  0.00440986  0.46155718    -0.08100
C393        C  0.28073052  0.97065591  0.45671677    -0.02650
C394        C  0.24828941  0.97011955  0.49457934     0.04170
N395        N  0.19635112  0.93898855  0.48932937     0.66670
H396        H  0.24232069  0.00400200  0.56535517     0.15570
H397        H  0.35507659  0.00481601  0.43181275     0.15280
N398        N  0.40074411  0.07324714  0.50588567     0.74380
O399        O  0.17004201  0.92853935  0.52926335    -0.39070
O400        O  0.17590484  0.92725156  0.44480758    -0.39020
O401        O  0.42194844  0.09178170  0.54903081    -0.39720
O402        O  0.42588191  0.08373396  0.46497034    -0.39790
C403        C  0.22877541  0.09021685  0.26216895    -0.12070
C404        C  0.18294083  0.04867660  0.25459610     0.04940
C405        C  0.14171785  0.05396162  0.24697938    -0.07350
C406        C  0.14762518  0.10029440  0.24465699    -0.08100
C407        C  0.19355870  0.14178093  0.25067441    -0.02650
C408        C  0.23479088  0.13670152  0.25934535     0.04170
N409        N  0.28322663  0.17760875  0.26107091     0.66670
H410        H  0.26079480  0.08671306  0.26705214     0.15570
H411        H  0.11567093  0.10386631  0.23917309     0.15280
N412        N  0.09346749  0.01302196  0.24382212     0.74380
O413        O  0.31363863  0.17953261  0.29439309    -0.39070
O414        O  0.29820287  0.20654719  0.22353109    -0.39020
O415        O  0.07918066  0.98151049  0.27871939    -0.39720
O416        O  0.06308238  0.01178165  0.21089712    -0.39790
C417        C  0.19921754  0.62439124  0.26099572    -0.12070
C418        C  0.15613644  0.62384563  0.24957531     0.04940
C419        C  0.11335064  0.57866859  0.24047570    -0.07350
C420        C  0.11545396  0.53566925  0.24382101    -0.08100
C421        C  0.15912170  0.53650571  0.25666305    -0.02650
C422        C  0.20127046  0.58210719  0.26624970     0.04170
N423        N  0.24732580  0.58782357  0.28071788     0.66670
H424        H  0.23246564  0.65870612  0.26745484     0.15570
H425        H  0.08233966  0.50133359  0.23675349     0.15280
N426        N  0.06752112  0.57536372  0.22921471     0.74380
O427        O  0.28467147  0.62334218  0.26212400    -0.39070
O428        O  0.25152421  0.57090568  0.32343992    -0.39020
O429        O  0.06202601  0.59317142  0.18778336    -0.39720
O430        O  0.03045124  0.54682911  0.25476789    -0.39790
C431        C  0.43244823  0.89892974  0.24665409    -0.12070
C432        C  0.38788823  0.85531960  0.24156044     0.04940
C433        C  0.38819289  0.81125628  0.23611129    -0.07350
C434        C  0.43282542  0.81186222  0.23793914    -0.08100
C435        C  0.47737387  0.85529256  0.24425153    -0.02650
C436        C  0.47706341  0.89946040  0.24916712     0.04170
N437        N  0.52080443  0.94449204  0.26089524     0.66670
H438        H  0.43238117  0.93267125  0.25206230     0.15570
H439        H  0.43285133  0.77803835  0.23337152     0.15280
N440        N  0.34392847  0.76587263  0.22714856     0.74380
O441        O  0.52678112  0.98330595  0.24171311    -0.39070
O442        O  0.54893650  0.94691634  0.29736601    -0.39020
O443        O  0.31069507  0.76359027  0.19783742    -0.39720
O444        O  0.34051060  0.72700899  0.24294898    -0.39790
C445        C  0.92022637  0.78382926  0.23550028    -0.12070
C446        C  0.96126910  0.82198260  0.26010478     0.04940
C447        C  0.95796773  0.85946431  0.28675769    -0.07350
C448        C  0.91432083  0.86036493  0.28234773    -0.08100
C449        C  0.87391043  0.82309745  0.25587828    -0.02650
C450        C  0.87614657  0.78336073  0.23421839     0.04170
N451        N  0.83498691  0.74365984  0.20839683     0.66670
H452        H  0.92270796  0.75457416  0.21632052     0.15570
H453        H  0.91127161  0.88969053  0.30034248     0.15280
N454        N  0.99698142  0.89517008  0.31974339     0.74380
O455        O  0.83938145  0.73091431  0.16271175    -0.39070
O456        O  0.79847547  0.71526149  0.23473160    -0.39020
O457        O  0.03230226  0.88981394  0.33316366    -0.39720
O458        O  0.99331065  0.92922550  0.34098682    -0.39790
C459        C  0.98906316  0.32727452  0.98327812    -0.12070
C460        C  0.97118789  0.28005616  0.96325276     0.04940
C461        C  0.98663518  0.24985009  0.98579940    -0.07350
C462        C  0.01985667  0.26800028  0.02780020    -0.08100
C463        C  0.03979064  0.31602574  0.04666429    -0.02650
C464        C  0.02324392  0.34597500  0.02491600     0.04170
N465        N  0.04213691  0.39564343  0.04193804     0.66670
H466        H  0.97729540  0.35023272  0.96511321     0.15570
H467        H  0.03158307  0.24458424  0.04479704     0.15280
N468        N  0.97026233  0.20134505  0.96616724     0.74380
O469        O  0.04261560  0.42611016  0.01064715    -0.39070
O470        O  0.05315442  0.40822563  0.08930910    -0.39020
O471        O  0.96467788  0.19170582  0.91769804    -0.39720
O472        O  0.96702821  0.16926250  0.99684598    -0.39790
C473        C  0.97460089  0.30458885  0.50560151    -0.12070
C474        C  0.98510248  0.28311048  0.54713314     0.04940
C475        C  0.02915529  0.28185509  0.54724122    -0.07350
C476        C  0.06053940  0.30061908  0.50449337    -0.08100
C477        C  0.04861581  0.31958878  0.46155341    -0.02650
C478        C  0.00608804  0.32350353  0.46303152     0.04170
N479        N  0.99505725  0.34760430  0.42259685     0.66670
H480        H  0.94154082  0.30665733  0.50646143     0.15570
H481        H  0.09312834  0.29772407  0.50332446     0.15280
N482        N  0.04240756  0.26109998  0.58939131     0.74380
O483        O  0.95146483  0.33588143  0.41271048    -0.39070
O484        O  0.02880528  0.38475066  0.40159148    -0.39020
O485        O  0.01137927  0.22153185  0.60890062    -0.39720
O486        O  0.08662422  0.27878272  0.60227120    -0.39790
C487        C  0.75434155  0.00693611  0.02683056    -0.12070
C488        C  0.70494691  0.98272664  0.04083598     0.04940
C489        C  0.67227355  0.99224957  0.01256195    -0.07350
C490        C  0.68988298  0.02531491  0.97133517    -0.07740
C491        C  0.73915700  0.04939568  0.95763699    -0.02650
C492        C  0.77190387  0.03966939  0.98529513     0.04170
N493        N  0.82229738  0.06088461  0.97082059     0.66670
H494        H  0.77937088  0.99918138  0.04767549     0.15570
H495        H  0.66468653  0.03206209  0.94933351     0.15280
N496        N  0.62094359  0.96682465  0.02252545     0.74380
O497        O  0.85377068  0.06523456  0.00416437    -0.39070
O498        O  0.83486584  0.07045490  0.92376863    -0.39020
O499        O  0.60561203  0.96555363  0.06820401    -0.39720
O500        O  0.59091330  0.95249006  0.98471113    -0.39790
C501        C  0.68476092  0.00596012  0.53112547    -0.12070
C502        C  0.73525751  0.03380410  0.54045008     0.04940
C503        C  0.76683451  0.02689551  0.50678766    -0.07350
C504        C  0.74768979  0.99462363  0.46416346    -0.08100
C505        C  0.69760861  0.96708583  0.45491071    -0.02650
C506        C  0.66529476  0.97253472  0.48863801     0.04170
N507        N  0.61334388  0.94616271  0.47966349     0.66670
H508        H  0.66034037  0.01112273  0.55631762     0.15570
H509        H  0.77233309  0.99007410  0.43856083     0.15280
N510        N  0.81828915  0.05042658  0.51625230     0.74380
O511        O  0.58483196  0.93948139  0.51694720    -0.39070
O512        O  0.59569669  0.93320796  0.43401456    -0.39020
O513        O  0.83433074  0.03827737  0.55495076    -0.39720
O514        O  0.84718590  0.07470081  0.48055763    -0.39790
C515        C  0.09730116  0.23030315  0.75676138    -0.12070
C516        C  0.05593863  0.18752092  0.77203857     0.04940
C517        C  0.06063498  0.14782196  0.78815050    -0.07350
C518        C  0.10565913  0.15001233  0.78260434    -0.08100
C519        C  0.14632666  0.19198897  0.76500134    -0.02650
C520        C  0.14246870  0.23296332  0.75355262     0.04170
N521        N  0.18314787  0.27619023  0.73478310     0.66670
H522        H  0.09410855  0.26103335  0.74468223     0.15570
H523        H  0.10955657  0.11941337  0.79350803     0.15280
N524        N  0.02133548  0.10669992  0.81281825     0.74380
O525        O  0.19458171  0.27872791  0.68726443    -0.39070
O526        O  0.20326527  0.31379710  0.76368637    -0.39020
O527        O  0.02126534  0.06710000  0.81463360    -0.39720
O528        O  0.99138099  0.11206337  0.84038739    -0.39790
C529        C  0.62858939  0.20422082  0.73159613    -0.12070
C530        C  0.63044427  0.16215465  0.74245187     0.04940
C531        C  0.58656120  0.11824817  0.75040225    -0.07350
C532        C  0.54204452  0.11738396  0.74622189    -0.08100
C533        C  0.54021674  0.15962975  0.73681790    -0.02650
C534        C  0.58399461  0.20364276  0.72830948     0.04170
N535        N  0.58386645  0.24741107  0.71509946     0.66670
H536        H  0.66228483  0.23768730  0.72489871     0.15570
H537        H  0.50863427  0.08404611  0.75418889     0.15280
N538        N  0.58652470  0.07542859  0.76721142     0.74380
O539        O  0.62151284  0.28826085  0.72286088    -0.39070
O540        O  0.54842618  0.24539372  0.69022505    -0.39020
O541        O  0.61418163  0.07818793  0.80438199    -0.39720
O542        O  0.55315529  0.03416310  0.75173693    -0.39790
C543        C  0.95682537  0.67452381  0.00088107    -0.12070
C544        C  0.97522797  0.68321242  0.95003627     0.04940
C545        C  0.02631181  0.70730224  0.94320812    -0.07350
C546        C  0.05737959  0.72213883  0.98741009    -0.08100
C547        C  0.03887961  0.71415756  0.03820877    -0.02650
C548        C  0.98791785  0.68941273  0.04482747     0.04170
N549        N  0.96711827  0.68237589  0.09568495     0.66670
H550        H  0.91783639  0.65700554  0.00656797     0.15570
H551        H  0.09645233  0.74243088  0.98210689     0.15280
N552        N  0.04751307  0.72087955  0.89242433     0.74380
O553        O  0.94497330  0.70446679  0.10881418    -0.39070
O554        O  0.96124777  0.64674666  0.12198235    -0.39020
O555        O  0.03574075  0.74481808  0.86290366    -0.39720
O556        O  0.08409233  0.71697105  0.88113215    -0.39790
C557        C  0.99202669  0.70532595  0.44397210    -0.12070
C558        C  0.04160029  0.73853638  0.45432659     0.04940
C559        C  0.05629196  0.75430830  0.50661328    -0.07350
C560        C  0.02161274  0.73733835  0.54638749    -0.08100
C561        C  0.97201160  0.70464237  0.53593755    -0.02650
C562        C  0.95748201  0.68755233  0.48393858     0.04170
N563        N  0.90890093  0.65008154  0.47111599     0.66670
H564        H  0.97998418  0.69156488  0.40446436     0.15570
H565        H  0.03369074  0.75104002  0.58591173     0.15280
N566        N  0.10553584  0.78926641  0.52013439     0.74380
O567        O  0.88691328  0.65457383  0.43225958    -0.39070
O568        O  0.89227744  0.60898500  0.49128822    -0.39020
O569        O  0.12444137  0.83102082  0.50129216    -0.39720
O570        O  0.12630870  0.78200826  0.55826489    -0.39790
C571        C  0.77819374  0.91452818  0.76295266    -0.12070
C572        C  0.82233950  0.95769733  0.75581865     0.04940
C573        C  0.86546028  0.95552401  0.74933363    -0.07350
C574        C  0.86343553  0.91072713  0.74988670    -0.08100
C575        C  0.81948076  0.86773664  0.75702363    -0.02650
C576        C  0.77617972  0.86957228  0.76305698     0.04170
N577        N  0.73025460  0.82668323  0.77107045     0.66670
H578        H  0.74471146  0.91538539  0.76732312     0.15570
H579        H  0.89686043  0.90963319  0.74595492     0.15280
N580        N  0.91200899  0.99853956  0.74537995     0.74380
O581        O  0.70518367  0.82461986  0.81016094    -0.39070
O582        O  0.71038591  0.79605355  0.73410980    -0.39020
O583        O  0.92442587  0.03248259  0.77860419    -0.39720
O584        O  0.94346222  0.99949888  0.71460185    -0.39790
C585        C  0.81842913  0.38628765  0.73313747    -0.12070
C586        C  0.86379660  0.39030724  0.74213252     0.04940
C587        C  0.90574697  0.43684016  0.74401550    -0.07350
C588        C  0.90107249  0.47808863  0.73795394    -0.08100
C589        C  0.85543336  0.47422162  0.72928387    -0.02650
C590        C  0.81385312  0.42725708  0.72557832     0.04170
N591        N  0.76640058  0.41974371  0.71473406     0.66670
H592        H  0.78603754  0.35069513  0.73085533     0.15570
H593        H  0.93351983  0.51357611  0.74075939     0.15280
N594        N  0.95296146  0.44313964  0.75453063     0.74380
O595        O  0.75261597  0.41553740  0.66761565    -0.39070
O596        O  0.73455205  0.40115491  0.74950348    -0.39020
O597        O  0.98817761  0.46957239  0.72555768    -0.39720
O598        O  0.96087718  0.42743508  0.79625445    -0.39790
C599        C  0.11553232  0.94490680  0.80061712    -0.12070
C600        C  0.14144542  0.95934086  0.75398735     0.04940
C601        C  0.12252564  0.92999695  0.70835745    -0.07350
C602        C  0.07816529  0.88633124  0.71063280    -0.08100
C603        C  0.05178236  0.87204896  0.75703027    -0.02650
C604        C  0.07048679  0.90197945  0.80235334     0.04170
N605        N  0.04473547  0.88899772  0.85056937     0.66670
H606        H  0.12966903  0.96780457  0.83545921     0.15570
H607        H  0.06396138  0.86349761  0.67577314     0.15280
N608        N  0.14724010  0.94425627  0.65934622     0.74380
O609        O  0.06281417  0.87951102  0.88953407    -0.39070
O610        O  0.00939651  0.89612308  0.85705361    -0.39020
O611        O  0.19285161  0.96272092  0.65736827    -0.39720
O612        O  0.12297734  0.93530529  0.61731893    -0.39790
C613        C  0.58631928  0.38795053  0.77148367    -0.12070
C614        C  0.54259042  0.38298995  0.75167216     0.04940
C615        C  0.54343727  0.42362835  0.72914266    -0.07350
C616        C  0.58759297  0.46704736  0.72543910    -0.08100
C617        C  0.63091664  0.47186058  0.74548188    -0.02650
C618        C  0.63047857  0.43225867  0.77035779     0.04170
N619        N  0.67276794  0.43637048  0.79709230     0.66670
H620        H  0.58609031  0.35730993  0.78903556     0.15570
H621        H  0.58788877  0.49784186  0.70777424     0.15280
N622        N  0.49992512  0.42246200  0.71164059     0.74380
O623        O  0.66863811  0.40224670  0.82505590    -0.39070
O624        O  0.71372899  0.47459474  0.79577631    -0.39020
O625        O  0.46926033  0.41944120  0.74484753    -0.39720
O626        O  0.49761649  0.43558877  0.66592492    -0.39790
C627        C  0.72090219  0.70204432  0.04780645    -0.12070
C628        C  0.68889433  0.71892486  0.03551543     0.04940
C629        C  0.66864559  0.71113566  0.98432847    -0.07350
C630        C  0.68460577  0.69015748  0.94597366    -0.08100
C631        C  0.71961852  0.67681458  0.95748129    -0.02650
C632        C  0.73597877  0.68044141  0.00967683     0.04170
N633        N  0.76796777  0.66268836  0.02443313     0.66670
H634        H  0.73497893  0.70654975  0.08744957     0.15570
H635        H  0.67164440  0.68677443  0.90603569     0.15280
N636        N  0.63220739  0.72369429  0.97023569     0.74380
O637        O  0.79776409  0.68232720  0.06208401    -0.39070
O638        O  0.76349399  0.62462060  0.00315795    -0.39020
O639        O  0.62406953  0.75140556  0.99886435    -0.39720
O640        O  0.60721675  0.70637774  0.92873757    -0.39790
C641        C  0.76787551  0.73734910  0.50848689    -0.12070
C642        C  0.73139762  0.70494185  0.54154394     0.04940
C643        C  0.68198724  0.68969482  0.52934856    -0.07350
C644        C  0.67094325  0.70814244  0.48486337    -0.08100
C645        C  0.70754993  0.74054378  0.45190709    -0.02650
C646        C  0.75655227  0.75503567  0.46387651     0.04170
N647        N  0.79553818  0.78935560  0.43258961     0.66670
H648        H  0.80568398  0.74933583  0.51760158     0.15570
H649        H  0.63325635  0.69623148  0.47520746     0.15280
N650        N  0.64241555  0.65353225  0.55910252     0.74380
O651        O  0.82714668  0.82918103  0.45310808    -0.39070
O652        O  0.80473361  0.77571459  0.38970061    -0.39020
O653        O  0.64341734  0.65558937  0.60840543    -0.39720
O654        O  0.60363435  0.62267819  0.53599517    -0.39790
loop_ 
_geom_bond_atom_site_label_1 
_geom_bond_atom_site_label_2 
_geom_bond_distance 
_geom_bond_site_symmetry_2 
_ccdc_geom_bond_type 
C1           N19   1.346       .  A
C1           C38   1.461       .  S
C1          C575   1.474       .  S
N2           N19   1.323       .  A
N2           N24   1.319       .  A
N2          Co39   2.069       .  S
C3           N28   1.344       .  A
C3           C41   1.466       .  S
C3           H48   1.082       .  S
H4           C45   1.082   1_455  S
C5           N29   1.346       .  A
C5            C9   1.474       .  S
C5           H34   1.080       .  S
Co6          N24   2.085       .  S
Co6          N14   2.075       .  S
Co6          N46   2.077       .  S
Co6          N22   2.083       .  S
Co6         Cl50   2.443       .  S
N7           C45   1.341       .  A
N7           N14   1.320       .  A
N7           Co8   2.087       .  S
Co8          N11   2.079       .  S
Co8          N28   2.093       .  S
Co8          N15   2.097       .  S
Co8         Cl50   2.454       .  S
C9           N47   1.348       .  A
C9          C561   1.493       .  S
N10          N17   1.320       .  A
N10          N40   1.330       .  A
N10         Co43   2.107       .  S
N11          N29   1.320       .  A
N11          N47   1.321       .  A
N12          C41   1.349       .  A
N12          N22   1.323       .  A
H13          C38   1.081       .  S
N14          N35   1.323       .  A
N15          N33   1.320       .  A
N15          N20   1.327       .  A
C16          N20   1.356       .  A
C16          C44   1.464       .  S
C16         C589   1.494       .  S
N17          C32   1.338       .  A
N17         Co39   2.078       .  S
C18          N46   1.337       .  A
C18          C21   1.462       .  S
C18          H52   1.082       .  S
C21          N42   1.353       .  A
C21         C631   1.483       .  S
N22          N28   1.321       .  A
N23          C49   1.338       .  A
N23          N25   1.321       .  A
N23         Co39   2.072       .  S
N24          C38   1.339       .  A
N25          N53   1.325       .  A
N25         Co43   2.090       .  S
H26          C49   1.082       .  S
H27          C44   1.078       .  S
N29         Co43   2.099       .  S
N30          N42   1.325       .  A
N30          N46   1.318       .  A
N30         Co39   2.085       .  S
C31          N35   1.347   1_455  A
C31          C45   1.461   1_455  S
C31         C603   1.475       .  S
C32          C51   1.454       .  S
C32          H36   1.082       .  S
N33          C44   1.340       .  A
N33         Co43   2.092       .  S
C37          N53   1.349       .  A
C37          C49   1.454       .  S
C37         C617   1.466       .  S
Co39        Cl50   2.456       .  S
N40          C51   1.356       .  A
C41         C544   1.482       .  S
Co43        Cl50   2.452       .  S
C51         C642   1.482       .  S
C54          N72   1.353       .  A
C54          C91   1.456       .  S
C54         C474   1.476       .  S
N55          N72   1.327       .  A
N55          N77   1.319       .  A
N55         Co92   2.089       .  S
C56          N81   1.342       .  A
C56          C94   1.463       .  S
C56         H101   1.081   1_545  S
H57          C98   1.082       .  S
C58          N82   1.341       .  A
C58          C62   1.459       .  S
C58          H87   1.082       .  S
Co59         N77   2.077       .  S
Co59         N67   2.073       .  S
Co59         N99   2.085       .  S
Co59         N75   2.077       .  S
Co59       Cl103   2.432       .  S
N60          C98   1.347       .  A
N60          N67   1.320       .  A
N60         Co61   2.097       .  S
Co61         N64   2.090       .  S
Co61         N81   2.077       .  S
Co61         N68   2.083       .  S
Co61       Cl103   2.466       .  S
C62         N100   1.352       .  A
C62         C530   1.481       .  S
N63          N70   1.323       .  A
N63          N93   1.325       .  A
N63         Co96   2.104       .  S
N64          N82   1.322       .  A
N64         N100   1.325       .  A
N65          C94   1.349       .  A
N65          N75   1.321       .  A
H66          C91   1.082       .  S
N67          N88   1.318       .  A
N68          N86   1.322       .  A
N68          N73   1.324       .  A
C69          N73   1.346       .  A
C69          C97   1.467       .  S
C69         C491   1.481       .  S
N70          C85   1.342       .  A
N70         Co92   2.082       .  S
C71          N99   1.341       .  A
C71          C74   1.461   1_655  S
C71         H105   1.081       .  S
C74          N95   1.347       .  A
C74         C516   1.471       .  S
N75          N81   1.318       .  A
N76         C102   1.334       .  A
N76          N78   1.320       .  A
N76         Co92   2.065       .  S
N77          C91   1.338       .  A
N78         N106   1.329       .  A
N78         Co96   2.100       .  S
H79         C102   1.082   1_455  S
H80          C97   1.081       .  S
N82         Co96   2.094       .  S
N83          N95   1.323   1_655  A
N83          N99   1.318       .  A
N83         Co92   2.073       .  S
C84          N88   1.345       .  A
C84          C98   1.471       .  S
C84         C502   1.491       .  S
C85         C104   1.461       .  S
C85          H89   1.082       .  S
N86          C97   1.349       .  A
N86         Co96   2.110       .  S
C90         N106   1.354       .  A
C90         C102   1.446       .  S
C90         C460   1.468       .  S
Co92       Cl103   2.464       .  S
N93         C104   1.352       .  A
C94         C572   1.481   1_545  S
Co96       Cl103   2.444       .  S
C104        C586   1.481       .  S
C107        N125   1.347       .  A
C107        C144   1.476       .  S
C107        C558   1.495       .  S
N108        N125   1.321       .  A
N108        N130   1.319       .  A
N108       Co145   2.075       .  S
C109        N134   1.343       .  A
C109        C147   1.462       .  S
C109        H154   1.082       .  S
H110        C151   1.082       .  S
C111        N135   1.335       .  A
C111        C115   1.460   1_565  S
C111        H140   1.081       .  S
Co112       N130   2.103       .  S
Co112       N120   2.097       .  S
Co112       N152   2.083       .  S
Co112       N128   2.107       .  S
Co112      Cl156   2.449       .  S
N113        C151   1.334       .  A
N113        N120   1.319       .  A
N113       Co114   2.059       .  S
Co114       N117   2.081       .  S
Co114       N134   2.089       .  S
Co114       N121   2.078       .  S
Co114      Cl156   2.453       .  S
C115        N153   1.352   1_545  A
C115        C404   1.477       .  S
N116        N123   1.317       .  A
N116        N146   1.323       .  A
N116       Co149   2.082       .  S
N117        N135   1.318       .  A
N117        N153   1.323       .  A
N118        C147   1.353       .  A
N118        N128   1.327       .  A
H119        C144   1.080       .  S
N120        N141   1.328       .  A
N121        N139   1.321       .  A
N121        N126   1.325       .  A
C122        N126   1.347       .  A
C122        C150   1.461       .  S
C122        C376   1.479       .  S
N123        C138   1.335       .  A
N123       Co145   2.053       .  S
C124        N152   1.332       .  A
C124        C127   1.465       .  S
C124        H158   1.081       .  S
C127        N148   1.347       .  A
C127        C418   1.480       .  S
N128        N134   1.322       .  A
N129        C155   1.341       .  A
N129        N131   1.320       .  A
N129       Co145   2.086       .  S
N130        C144   1.347       .  A
N131        N159   1.325       .  A
N131       Co149   2.093       .  S
H132        C155   1.081       .  S
H133        C150   1.082       .  S
N135       Co149   2.068       .  S
N136        N148   1.324       .  A
N136        N152   1.319       .  A
N136       Co145   2.062       .  S
C137        N141   1.354       .  A
C137        C151   1.445       .  S
C137        C393   1.467       .  S
C138        C157   1.449       .  S
C138        H142   1.082   1_455  S
N139        C150   1.338       .  A
N139       Co149   2.084       .  S
C143        N159   1.352       .  A
C143        C155   1.463       .  S
C143        C547   1.482       .  S
Co145      Cl156   2.453       .  S
N146        C157   1.349       .  A
C147        C432   1.487       .  S
Co149      Cl156   2.442       .  S
C157        C446   1.456   1_455  S
C160        N178   1.351       .  A
C160        C197   1.463       .  S
C160        C614   1.487       .  S
N161        N178   1.323       .  A
N161        N183   1.320       .  A
N161       Co198   2.079       .  S
C162        N187   1.323       .  A
C162        C200   1.453       .  S
C162        H207   1.074       .  S
H163        C204   1.081       .  S
C164        N188   1.336       .  A
C164        C168   1.459       .  S
C164        H193   1.082       .  S
Co165       N183   2.087       .  S
Co165       N173   2.093       .  S
Co165       N205   2.103       .  S
Co165       N181   2.122       .  S
Co165      Cl209   2.459       .  S
N166        C204   1.343       .  A
N166        N173   1.321       .  A
N166       Co167   2.087       .  S
Co167       N170   2.076       .  S
Co167       N187   2.046       .  S
Co167       N174   2.089       .  S
Co167      Cl209   2.444       .  S
C168        N206   1.351       .  A
C168        C390   1.469       .  S
N169        N176   1.318       .  A
N169        N199   1.317       .  A
N169       Co202   2.062       .  S
N170        N188   1.317       .  A
N170        N206   1.324       .  A
N171        C200   1.367       .  A
N171        N181   1.334       .  A
H172        C197   1.081       .  S
N173        N194   1.325       .  A
N174        N192   1.318       .  A
N174        N179   1.325       .  A
C175        N179   1.350       .  A
C175        C203   1.455       .  S
C175        C600   1.467   1_545  S
N176        C191   1.347       .  A
N176       Co198   2.093       .  S
C177        N205   1.348       .  A
C177        C180   1.474       .  S
C177        H211   1.081       .  S
C180        N201   1.343       .  A
C180        C362   1.488       .  S
N181        N187   1.316       .  A
N182        C208   1.337       .  A
N182        N184   1.319       .  A
N182       Co198   2.069       .  S
N183        C197   1.338       .  A
N184        N212   1.323       .  A
N184       Co202   2.080       .  S
H185        C208   1.080       .  S
H186        C203   1.081       .  S
N188       Co202   2.073       .  S
N189        N201   1.319       .  A
N189        N205   1.321       .  A
N189       Co198   2.075       .  S
C190        N194   1.349       .  A
C190        C204   1.462       .  S
C190        C533   1.478       .  S
C191        C210   1.473       .  S
C191        H195   1.081       .  S
N192        C203   1.338       .  A
N192       Co202   2.069       .  S
C196        N212   1.349       .  A
C196        C208   1.454       .  S
C196        C519   1.465       .  S
Co198      Cl209   2.448       .  S
N199        C210   1.345       .  A
C200        C379   1.500       .  S
Co202      Cl209   2.437       .  S
C210        C348   1.486       .  S
C213        N231   1.355       .  A
C213        C250   1.454       .  S
C213        C477   1.480       .  S
N214        N231   1.329       .  A
N214        N236   1.321       .  A
N214       Co251   2.102       .  S
C215        N240   1.336       .  A
C215        C253   1.465       .  S
C215        H260   1.082       .  S
H216        C257   1.081       .  S
C217        N241   1.338       .  A
C217        C221   1.459       .  S
C217        H246   1.081       .  S
Co218       N236   2.075       .  S
Co218       N226   2.079       .  S
Co218       N258   2.083       .  S
Co218       N234   2.087       .  S
Co218      Cl262   2.453       .  S
N219        C257   1.339       .  A
N219        N226   1.319       .  A
N219       Co220   2.083       .  S
Co220       N223   2.072       .  S
Co220       N240   2.077       .  S
Co220       N227   2.084       .  S
Co220      Cl262   2.443       .  S
C221        N259   1.349       .  A
C221        C407   1.472       .  S
N222        N229   1.320       .  A
N222        N252   1.320       .  A
N222       Co255   2.073       .  S
N223        N241   1.317       .  A
N223        N259   1.320       .  A
N224        C253   1.353       .  A
N224        N234   1.325       .  A
H225        C250   1.082       .  S
N226        N247   1.324       .  A
N227        N245   1.319       .  A
N227        N232   1.324       .  A
C228        N232   1.350       .  A
C228        C256   1.460       .  S
C228        C365   1.476       .  S
N229        C244   1.346       .  A
N229       Co251   2.092       .  S
C230        N258   1.341       .  A
C230        C233   1.464       .  S
C230        H264   1.081       .  S
C233        N254   1.352       .  A
C233        C421   1.491       .  S
N234        N240   1.318       .  A
N235        C261   1.336       .  A
N235        N237   1.320       .  A
N235       Co251   2.095       .  S
N236        C250   1.337       .  A
N237        N265   1.324       .  A
N237       Co255   2.066       .  S
H238        C261   1.080       .  S
H239        C256   1.081       .  S
N241       Co255   2.066       .  S
N242        N254   1.324       .  A
N242        N258   1.321       .  A
N242       Co251   2.100       .  S
C243        N247   1.350       .  A
C243        C257   1.462       .  S
C243        C320   1.484   1_455  S
C244        C263   1.467       .  S
C244        H248   1.081       .  S
N245        C256   1.340       .  A
N245       Co255   2.079       .  S
C249        N265   1.348       .  A
C249        C261   1.470       .  S
C249        C337   1.486       .  S
Co251      Cl262   2.456       .  S
N252        C263   1.345       .  A
C253        C463   1.484       .  S
Co255      Cl262   2.444       .  S
C263        C351   1.477       .  S
C266        N284   1.341       .  A
C266        C303   1.458       .  S
C266        C449   1.458       .  S
N267        N284   1.318       .  A
N267        N289   1.317       .  A
N267       Co304   2.050       .  S
C268        N293   1.345       .  A
C268        C306   1.469       .  S
C268        H313   1.081       .  S
H269        C310   1.081   1_545  S
C270        N294   1.345       .  A
C270        C274   1.462       .  S
C270        H299   1.082       .  S
Co271       N289   2.079       .  S
Co271       N279   2.081       .  S
Co271       N311   2.094       .  S
Co271       N287   2.088       .  S
Co271      Cl315   2.451       .  S
N272        C310   1.342       .  A
N272        N279   1.319       .  A
N272       Co273   2.088       .  S
Co273       N276   2.079       .  S
Co273       N293   2.100       .  S
Co273       N280   2.105       .  S
Co273      Cl315   2.450       .  S
C274        N312   1.345       .  A
C274        C505   1.471       .  S
N275        N282   1.319       .  A
N275        N305   1.331       .  A
N275       Co308   2.113       .  S
N276        N294   1.321       .  A
N276        N312   1.322       .  A
N277        C306   1.352       .  A
N277        N287   1.325       .  A
H278        C303   1.081       .  S
N279        N300   1.323       .  A
N280        N298   1.324       .  A
N280        N285   1.328       .  A
C281        N285   1.355       .  A
C281        C309   1.460       .  S
C281        C435   1.490       .  S
N282        C297   1.336       .  A
N282       Co304   2.071       .  S
C283        N311   1.342       .  A
C283        C286   1.465       .  S
C283        H317   1.082       .  S
C286        N307   1.349       .  A
C286        C628   1.475       .  S
N287        N293   1.320       .  A
N288        C314   1.338       .  A
N288        N290   1.317       .  A
N288       Co304   2.053       .  S
N289        C303   1.340       .  A
N290        N318   1.321       .  A
N290       Co308   2.093       .  S
H291        C314   1.079       .  S
H292        C309   1.082       .  S
N294       Co308   2.090       .  S
N295        N307   1.323       .  A
N295        N311   1.320       .  A
N295       Co304   2.079       .  S
C296        N300   1.349   1_545  A
C296        C310   1.465   1_545  S
C296        C323   1.482       .  S
C297        C316   1.451       .  S
C297        H301   1.081       .  S
N298        C309   1.341       .  A
N298       Co308   2.097       .  S
C302        N318   1.354       .  A
C302        C314   1.458       .  S
C302        C334   1.478       .  S
Co304      Cl315   2.446       .  S
N305        C316   1.359       .  A
C306        C488   1.493       .  S
Co308      Cl315   2.457       .  S
C316        C645   1.483       .  S
C319        H326   1.083   1_655  S
C319        C320   1.405       .  A
C319        C324   1.404       .  A
C320        C321   1.415       .  A
C321        C322   1.401       .  A
C321        N328   1.433       .  S
C322        H327   1.083       .  S
C322        C323   1.403       .  A
C323        C324   1.415       .  A
C324        N325   1.439       .  S
N325        O329   1.263       .  A
N325        O330   1.263   1_545  A
N328        O331   1.262       .  A
N328        O332   1.262       .  A
C333        H340   1.084       .  S
C333        C334   1.393       .  A
C333        C338   1.389       .  A
C334        C335   1.416       .  A
C335        C336   1.407       .  A
C335        N342   1.427       .  S
C336        H341   1.083       .  S
C336        C337   1.405       .  A
C337        C338   1.405       .  A
C338        N339   1.416       .  S
N339        O343   1.262       .  A
N339        O344   1.263       .  A
N342        O345   1.262       .  A
N342        O346   1.262       .  A
C347        H354   1.082       .  S
C347        C348   1.407       .  A
C347        C352   1.410       .  A
C348        C349   1.417       .  A
C349        C350   1.397       .  A
C349        N356   1.437       .  S
C350        H355   1.085       .  S
C350        C351   1.400       .  A
C351        C352   1.415       .  A
C352        N353   1.438       .  S
N353        O357   1.263       .  A
N353        O358   1.263       .  A
N356        O359   1.263       .  A
N356        O360   1.263       .  A
C361        H368   1.083       .  S
C361        C362   1.402   1_554  A
C361        C366   1.406       .  A
C362        C363   1.419       .  A
C363        C364   1.399       .  A
C363        N370   1.429       .  S
C364        H369   1.084       .  S
C364        C365   1.396   1_556  A
C365        C366   1.416       .  A
C366        N367   1.432       .  S
N367        O371   1.262       .  A
N367        O372   1.262       .  A
N370        O373   1.262       .  A
N370        O374   1.262       .  A
C375        H382   1.086       .  S
C375        C376   1.391   1_556  A
C375        C380   1.391       .  A
C376        C377   1.419   1_565  A
C377        C378   1.413       .  A
C377        N384   1.435       .  S
C378        H383   1.084       .  S
C378        C379   1.407   1_554  A
C379        C380   1.424   1_545  A
C380        N381   1.426       .  S
N381        O385   1.262       .  A
N381        O386   1.262       .  A
N384        O387   1.262       .  A
N384        O388   1.263       .  A
C389        H396   1.084       .  S
C389        C390   1.403       .  A
C389        C394   1.401   1_545  A
C390        C391   1.412       .  A
C391        C392   1.406       .  A
C391        N398   1.443       .  S
C392        H397   1.084       .  S
C392        C393   1.405   1_545  A
C393        C394   1.411       .  A
C394        N395   1.441       .  S
N395        O399   1.261       .  A
N395        O400   1.262       .  A
N398        O401   1.262       .  A
N398        O402   1.263       .  A
C403        H410   1.084       .  S
C403        C404   1.403       .  A
C403        C408   1.400       .  A
C404        C405   1.414       .  A
C405        C406   1.395       .  A
C405        N412   1.432       .  S
C406        H411   1.085       .  S
C406        C407   1.400       .  A
C407        C408   1.414       .  A
C408        N409   1.434       .  S
N409        O413   1.262       .  A
N409        O414   1.262       .  A
N412        O415   1.260   1_545  A
N412        O416   1.263       .  A
C417        H424   1.084       .  S
C417        C418   1.389       .  A
C417        C422   1.391       .  A
C418        C419   1.415       .  A
C419        C420   1.410       .  A
C419        N426   1.433       .  S
C420        H425   1.084       .  S
C420        C421   1.410       .  A
C421        C422   1.415       .  A
C422        N423   1.426       .  S
N423        O427   1.262       .  A
N423        O428   1.262       .  A
N426        O429   1.262       .  A
N426        O430   1.262       .  A
C431        H438   1.084       .  S
C431        C432   1.405       .  A
C431        C436   1.409       .  A
C432        C433   1.414       .  A
C433        C434   1.408       .  A
C433        N440   1.439       .  S
C434        H439   1.083       .  S
C434        C435   1.405       .  A
C435        C436   1.417       .  A
C436        N437   1.437       .  S
N437        O441   1.263       .  A
N437        O442   1.263       .  A
N440        O443   1.263       .  A
N440        O444   1.262       .  A
C445        H452   1.084       .  S
C445        C446   1.398       .  A
C445        C450   1.392       .  A
C446        C447   1.415       .  A
C447        C448   1.404       .  A
C447        N454   1.445       .  S
C448        H453   1.083       .  S
C448        C449   1.398       .  A
C449        C450   1.409       .  A
C450        N451   1.433       .  S
N451        O455   1.262       .  A
N451        O456   1.262       .  A
N454        O457   1.263   1_655  A
N454        O458   1.263       .  A
C459        H466   1.084       .  S
C459        C460   1.403       .  A
C459        C464   1.410   1_656  A
C460        C461   1.410       .  A
C461        C462   1.400   1_656  A
C461        N468   1.443       .  S
C462        H467   1.083       .  S
C462        C463   1.407       .  A
C463        C464   1.419       .  A
C464        N465   1.443       .  S
N465        O469   1.263       .  A
N465        O470   1.261       .  A
N468        O471   1.262       .  A
N468        O472   1.263       .  A
C473        H480   1.084       .  S
C473        C474   1.399       .  A
C473        C478   1.405   1_655  A
C474        C475   1.419   1_655  A
C475        C476   1.407       .  A
C475        N482   1.440       .  S
C476        H481   1.084       .  S
C476        C477   1.401       .  A
C477        C478   1.417       .  A
C478        N479   1.440   1_455  S
N479        O483   1.263       .  A
N479        O484   1.263   1_655  A
N482        O485   1.262       .  A
N482        O486   1.263       .  A
C487        H494   1.083   1_545  S
C487        C488   1.409   1_545  A
C487        C492   1.410   1_554  A
C488        C489   1.417       .  A
C489        C490   1.410   1_564  A
C489        N496   1.437       .  S
C490        H495   1.084       .  S
C490        C491   1.404       .  A
C491        C492   1.414       .  A
C492        N493   1.443       .  S
N493        O497   1.263   1_556  A
N493        O498   1.263       .  A
N496        O499   1.261       .  A
N496        O500   1.263   1_554  A
C501        H508   1.082       .  S
C501        C502   1.407       .  A
C501        C506   1.412   1_545  A
C502        C503   1.420       .  A
C503        C504   1.396   1_545  A
C503        N510   1.433       .  S
C504        H509   1.085       .  S
C504        C505   1.395       .  A
C505        C506   1.417       .  A
C506        N507   1.443       .  S
N507        O511   1.263       .  A
N507        O512   1.262       .  A
N510        O513   1.263       .  A
N510        O514   1.262       .  A
C515        H522   1.084       .  S
C515        C516   1.402       .  A
C515        C520   1.396       .  A
C516        C517   1.414       .  A
C517        C518   1.404       .  A
C517        N524   1.439       .  S
C518        H523   1.084       .  S
C518        C519   1.398       .  A
C519        C520   1.407       .  A
C520        N521   1.429       .  S
N521        O525   1.262       .  A
N521        O526   1.262       .  A
N524        O527   1.263       .  A
N524        O528   1.263   1_455  A
C529        H536   1.085       .  S
C529        C530   1.404       .  A
C529        C534   1.409       .  A
C530        C531   1.415       .  A
C531        C532   1.403       .  A
C531        N538   1.438       .  S
C532        H537   1.085       .  S
C532        C533   1.402       .  A
C533        C534   1.417       .  A
C534        N535   1.443       .  S
N535        O539   1.263       .  A
N535        O540   1.263       .  A
N538        O541   1.263       .  A
N538        O542   1.262       .  A
C543        H550   1.085       .  S
C543        C544   1.402   1_554  A
C543        C548   1.402       .  A
C544        C545   1.418   1_655  A
C545        C546   1.407       .  A
C545        N552   1.436       .  S
C546        H551   1.085       .  S
C546        C547   1.402   1_556  A
C547        C548   1.413   1_455  A
C548        N549   1.430       .  S
N549        O553   1.262       .  A
N549        O554   1.262       .  A
N552        O555   1.263       .  A
N552        O556   1.262       .  A
C557        H564   1.083       .  S
C557        C558   1.410   1_655  A
C557        C562   1.405       .  A
C558        C559   1.413       .  A
C559        C560   1.404       .  A
C559        N566   1.430       .  S
C560        H565   1.083       .  S
C560        C561   1.408   1_455  A
C561        C562   1.413       .  A
C562        N563   1.432       .  S
N563        O567   1.262       .  A
N563        O568   1.263       .  A
N566        O569   1.260       .  A
N566        O570   1.262       .  A
C571        H578   1.083       .  S
C571        C572   1.404       .  A
C571        C576   1.403       .  A
C572        C573   1.415       .  A
C573        C574   1.398       .  A
C573        N580   1.432       .  S
C574        H579   1.084       .  S
C574        C575   1.398       .  A
C575        C576   1.414       .  A
C576        N577   1.433       .  S
N577        O581   1.262       .  A
N577        O582   1.262       .  A
N580        O583   1.260   1_565  A
N580        O584   1.263       .  A
C585        H592   1.085       .  S
C585        C586   1.398       .  A
C585        C590   1.401       .  A
C586        C587   1.413       .  A
C587        C588   1.406       .  A
C587        N594   1.433       .  S
C588        H593   1.085       .  S
C588        C589   1.407       .  A
C589        C590   1.417       .  A
C590        N591   1.427       .  S
N591        O595   1.262       .  A
N591        O596   1.261       .  A
N594        O597   1.262       .  A
N594        O598   1.262       .  A
C599        H606   1.084       .  S
C599        C600   1.399       .  A
C599        C604   1.401       .  A
C600        C601   1.412       .  A
C601        C602   1.402       .  A
C601        N608   1.436       .  S
C602        H607   1.084       .  S
C602        C603   1.400       .  A
C603        C604   1.413       .  A
C604        N605   1.431       .  S
N605        O609   1.262       .  A
N605        O610   1.262       .  A
N608        O611   1.262       .  A
N608        O612   1.262       .  A
C613        H620   1.079       .  S
C613        C614   1.407       .  A
C613        C618   1.407       .  A
C614        C615   1.415       .  A
C615        C616   1.398       .  A
C615        N622   1.433       .  S
C616        H621   1.083       .  S
C616        C617   1.399       .  A
C617        C618   1.417       .  A
C618        N619   1.449       .  S
N619        O623   1.263       .  A
N619        O624   1.262       .  A
N622        O625   1.262       .  A
N622        O626   1.262       .  A
C627        H634   1.084       .  S
C627        C628   1.404       .  A
C627        C632   1.402       .  A
C628        C629   1.418   1_554  A
C629        C630   1.410       .  A
C629        N636   1.447       .  S
C630        H635   1.083       .  S
C630        C631   1.406       .  A
C631        C632   1.412   1_556  A
C632        N633   1.440       .  S
N633        O637   1.262       .  A
N633        O638   1.263       .  A
N636        O639   1.262       .  A
N636        O640   1.263       .  A
C641        H648   1.085       .  S
C641        C642   1.401       .  A
C641        C646   1.403       .  A
C642        C643   1.422       .  A
C643        C644   1.410       .  A
C643        N650   1.440       .  S
C644        H649   1.084       .  S
C644        C645   1.401       .  A
C645        C646   1.414       .  A
C646        N647   1.432       .  S
N647        O651   1.262       .  A
N647        O652   1.261       .  A
N650        O653   1.261       .  A
N650        O654   1.263       .  A
