geometry optimzed in LAMMPS
_audit_creation_date              2020-11-30 
_audit_creation_method            'lammps2cif' 
_symmetry_space_group_name_H-M    'P1' 
_symmetry_Int_Tables_number       1 
_symmetry_cell_setting            triclinic 
loop_ 
_symmetry_equiv_pos_as_xyz 
  x,y,z 
_cell_length_a                    91.67125391 
_cell_length_b                    91.62936301132662 
_cell_length_c                    91.84325624433197 
_cell_angle_alpha                 90.01604720423033 
_cell_angle_beta                  89.99963137736465 
_cell_angle_gamma                 89.93028351560194 
loop_ 
_atom_site_label 
_atom_site_type_symbol 
_atom_site_fract_x 
_atom_site_fract_y 
_atom_site_fract_z 
_atom_site_charge 
N1          N  0.76133538  0.90620511  0.39399528    -0.02400
C2          C  0.75633137  0.90767692  0.38019315     0.00200
C3          C  0.75908034  0.89509207  0.37231752    -0.22600
C4          C  0.76579574  0.88550365  0.38166856    -0.22900
C5          C  0.76710128  0.89263595  0.39485100     0.00100
H6          H  0.75612993  0.89293071  0.36111401     0.13900
H7          H  0.76939255  0.87454697  0.37910330     0.14000
N8          N  0.74871656  0.90268650  0.58422288    -0.02400
C9          C  0.74311826  0.90362500  0.59782034     0.00200
C10         C  0.74414889  0.89020827  0.60468341    -0.22600
C11         C  0.75047710  0.88075061  0.59488141    -0.22900
C12         C  0.75327794  0.88875671  0.58245777     0.00100
H13         H  0.74051464  0.88750913  0.61556325     0.13900
H14         H  0.75308673  0.86938634  0.59676565     0.14000
N15         N  0.75129824  0.09704120  0.39948854    -0.02400
C16         C  0.75705698  0.11057344  0.40093214     0.00200
C17         C  0.75536618  0.11824295  0.38806685    -0.22600
C18         C  0.74852520  0.10899375  0.37840625    -0.22900
C19         C  0.74607557  0.09602742  0.38573266     0.00100
H20         H  0.75896946  0.12925591  0.38582015     0.13900
H21         H  0.74555442  0.11153515  0.36728906     0.14000
N22         N  0.74631119  0.08936222  0.59107464    -0.02400
C23         C  0.74000303  0.08795206  0.60430622     0.00200
C24         C  0.74034760  0.10109368  0.61167887    -0.22600
C25         C  0.74700628  0.11096251  0.60256565    -0.22900
C26         C  0.75069200  0.10345281  0.59000564     0.00100
H27         H  0.73610394  0.10330020  0.62245447     0.13900
H28         H  0.74925427  0.12228759  0.60502984     0.14000
O29         O  0.77158796  0.98534704  0.47652909    -0.71800
O30         O  0.76604277  0.01524449  0.50842546    -0.72800
O31         O  0.76896391  0.98463892  0.50763379    -0.61400
O32         O  0.76886480  0.01601077  0.47731711    -0.69800
O33         O  0.74478495  0.01416747  0.47532272    -0.69400
O34         O  0.74494505  0.98240545  0.50537014    -0.60600
O35         O  0.74203185  0.01326244  0.50598467    -0.73100
O36         O  0.74753912  0.98316315  0.47471098    -0.71900
Cu37       Cu  0.76971682  0.00039068  0.49254752     1.04600
Cu38       Cu  0.74399631  0.99817630  0.49026345     1.04300
C39         C  0.76036570  0.97955477  0.47062020     0.94400
C40         C  0.75311832  0.01886933  0.51225927     0.93500
C41         C  0.75696156  0.97866252  0.51135404     0.85700
C42         C  0.75685224  0.01998354  0.47150741     0.91900
N43         N  0.91867364  0.75827857  0.39853527    -0.02400
C44         C  0.91931633  0.75365432  0.38451782     0.00200
C45         C  0.90658424  0.75726592  0.37729502    -0.22600
C46         C  0.89773239  0.76413692  0.38727526    -0.22900
C47         C  0.90548667  0.76473710  0.40014657     0.00100
H48         H  0.90385143  0.75478792  0.36610164     0.13900
H49         H  0.88679165  0.76816282  0.38538661     0.14000
N50         N  0.90769013  0.75488038  0.59175223    -0.02400
C51         C  0.90845758  0.75026138  0.60573366     0.00200
C52         C  0.89510705  0.75207897  0.61252298    -0.22600
C53         C  0.88579243  0.75784320  0.60228390    -0.22900
C54         C  0.89382765  0.75953128  0.58967300     0.00100
H55         H  0.89232231  0.74917145  0.62359839     0.13900
H56         H  0.87445734  0.76071260  0.60393766     0.14000
N57         N  0.10367347  0.73502669  0.40788298    -0.02400
C58         C  0.10238104  0.73019742  0.39397783     0.00200
C59         C  0.11554550  0.73181625  0.38676727    -0.22600
C60         C  0.12521311  0.73768820  0.39660363    -0.22900
C61         C  0.11761299  0.73966409  0.40943915     0.00100
H62         H  0.11798172  0.72880378  0.37563666     0.13900
H63         H  0.13649779  0.74044567  0.39452384     0.14000
N64         N  0.09637411  0.74788197  0.59985279    -0.02400
C65         C  0.09505512  0.74236285  0.61345246     0.00200
C66         C  0.10826989  0.74320519  0.62066610    -0.22600
C67         C  0.11806052  0.74929760  0.61105200    -0.22900
C68         C  0.11042995  0.75215239  0.59837071     0.00100
H69         H  0.11062164  0.73951667  0.63161114     0.13900
H70         H  0.12942798  0.75163406  0.61319520     0.14000
O71         O  0.98912379  0.73312030  0.51445905    -0.71800
O72         O  0.02218768  0.73204500  0.48563123    -0.72800
O73         O  0.02035022  0.73216828  0.51634887    -0.61400
O74         O  0.99120251  0.73309167  0.48358218    -0.69800
O75         O  0.99197632  0.75730002  0.48375370    -0.69400
O76         O  0.02087161  0.75639772  0.51663456    -0.60600
O77         O  0.02267798  0.75627016  0.48557566    -0.73100
O78         O  0.99008404  0.75732472  0.51485177    -0.71900
Cu79       Cu  0.00567328  0.73175372  0.50004370     1.04600
Cu80       Cu  0.00641982  0.75766026  0.50022493     1.04300
C81         C  0.98442518  0.74536389  0.51922085     0.94400
C82         C  0.02750952  0.74403285  0.48093660     0.93500
C83         C  0.02528546  0.74412450  0.52154375     0.85700
C84         C  0.98715486  0.74538007  0.47837208     0.91900
N85         N  0.24311094  0.89613571  0.39728473    -0.02400
C86         C  0.23923291  0.88205182  0.39958221     0.00200
C87         C  0.24073799  0.87411006  0.38688366    -0.22600
C88         C  0.24549450  0.88370638  0.37637529    -0.22900
C89         C  0.24698538  0.89714286  0.38306641     0.00100
H90         H  0.23848096  0.86261761  0.38538208     0.13900
H91         H  0.24792623  0.88107476  0.36514610     0.14000
N92         N  0.25500250  0.90079034  0.59156182    -0.02400
C93         C  0.25162749  0.88649041  0.59006005     0.00200
C94         C  0.25371553  0.87920507  0.60305283    -0.22600
C95         C  0.25841195  0.88944927  0.61295074    -0.22900
C96         C  0.25922355  0.90257688  0.60558214     0.00100
H97         H  0.25164173  0.86778360  0.60520921     0.13900
H98         H  0.26112174  0.88749157  0.62425197     0.14000
N99         N  0.23696134  0.08433660  0.39492866    -0.02400
C100        C  0.23248705  0.09836877  0.39628360     0.00200
C101        C  0.23358660  0.10545681  0.38302286    -0.22600
C102        C  0.23876371  0.09537593  0.37319145    -0.22900
C103        C  0.24083770  0.08256499  0.38083334     0.00100
H104        H  0.23070819  0.11666966  0.38067722     0.13900
H105        H  0.24105051  0.09727433  0.36178835     0.14000
N106        N  0.24671467  0.08862447  0.58560220    -0.02400
C107        C  0.24086510  0.10213868  0.58427827     0.00200
C108        C  0.24185451  0.10951952  0.59737365    -0.22600
C109        C  0.24841885  0.10014774  0.60707889    -0.22900
C110        C  0.25141571  0.08742267  0.59953700     0.00100
H111        H  0.23808421  0.12047697  0.59967289     0.13900
H112        H  0.25106326  0.10251949  0.61831631     0.14000
O113        O  0.25630347  0.00705475  0.47693908    -0.71800
O114        O  0.25654842  0.97702127  0.50878639    -0.72800
O115        O  0.25754467  0.97592868  0.47794913    -0.61400
O116        O  0.25523749  0.00806348  0.50768054    -0.69800
O117        O  0.23105011  0.00691778  0.50716718    -0.69400
O118        O  0.23336231  0.97513217  0.47706502    -0.60600
O119        O  0.23235545  0.97615241  0.50829151    -0.73100
O120        O  0.23212905  0.00608712  0.47606949    -0.71900
Cu121      Cu  0.25724157  0.99203867  0.49284847     1.04600
Cu122      Cu  0.23137240  0.99102055  0.49209523     1.04300
C123        C  0.24420906  0.01137729  0.47153547     0.94400
C124        C  0.24452057  0.97199832  0.51370310     0.93500
C125        C  0.24580302  0.97050997  0.47277063     0.85700
C126        C  0.24279538  0.01246584  0.51218297     0.91900
N127        N  0.40493992  0.89847062  0.24820991    -0.02400
C128        C  0.40615885  0.88428176  0.24416414     0.00200
C129        C  0.39261799  0.87763628  0.24475920    -0.22600
C130        C  0.38280548  0.88814528  0.24912184    -0.22900
C131        C  0.39066760  0.90084412  0.25120446     0.00100
H132        H  0.39002563  0.86647370  0.24192976     0.13900
H133        H  0.37122518  0.88660248  0.25079850     0.14000
N134        N  0.60066634  0.90305238  0.24194006    -0.02400
C135        C  0.59948319  0.88887151  0.23792448     0.00200
C136        C  0.61252651  0.88167762  0.24022955    -0.22600
C137        C  0.62206641  0.89180511  0.24579515    -0.22900
C138        C  0.61449805  0.90485787  0.24689281     0.00100
H139        H  0.61486286  0.87029423  0.23810533     0.13900
H140        H  0.63317009  0.88967373  0.24918438     0.14000
N141        N  0.40239206  0.08566599  0.24493034    -0.02400
C142        C  0.40416887  0.09947101  0.23995624     0.00200
C143        C  0.39121796  0.10713651  0.24117519    -0.22600
C144        C  0.38114450  0.09768295  0.24697517    -0.22900
C145        C  0.38830552  0.08459632  0.24927578     0.00100
H146        H  0.38924403  0.11834879  0.23803429     0.13900
H147        H  0.36991441  0.10022106  0.24959520     0.14000
N148        N  0.59186756  0.09233897  0.24981585    -0.02400
C149        C  0.58925295  0.10657411  0.24693927     0.00200
C150        C  0.60157115  0.11482481  0.24961740    -0.22600
C151        C  0.61222477  0.10524891  0.25409418    -0.22900
C152        C  0.60592142  0.09156869  0.25418334     0.00100
H153        H  0.60280785  0.12646326  0.24805025     0.13900
H154        H  0.62332862  0.10796860  0.25702344     0.14000
O155        O  0.51540588  0.97663977  0.26014722    -0.71800
O156        O  0.48496367  0.00825502  0.26151902    -0.72800
O157        O  0.48457822  0.97717858  0.25934078    -0.61400
O158        O  0.51573972  0.00777804  0.26238282    -0.69800
O159        O  0.51641049  0.00950494  0.23828542    -0.69400
O160        O  0.48521325  0.97881833  0.23522809    -0.60600
O161        O  0.48528200  0.00953931  0.23737535    -0.73100
O162        O  0.51642634  0.97855439  0.23607649    -0.71900
Cu163      Cu  0.50016627  0.99238846  0.26168260     1.04600
Cu164      Cu  0.50088270  0.99415148  0.23589416     1.04300
C165        C  0.52073225  0.97263066  0.24792396     0.94400
C166        C  0.48026569  0.01379454  0.24964566     0.93500
C167        C  0.47991783  0.97325081  0.24683016     0.85700
C168        C  0.52086047  0.01359945  0.25083048     0.91900
N169        N  0.40466494  0.74655708  0.90654214    -0.02400
C170        C  0.40485171  0.74942370  0.89207551     0.00200
C171        C  0.39122930  0.74705004  0.88610866    -0.22600
C172        C  0.38232503  0.74265597  0.89734136    -0.22900
C173        C  0.39087441  0.74234347  0.90974661     0.00100
H174        H  0.38803554  0.74862751  0.87487414     0.13900
H175        H  0.37096387  0.73958084  0.89646204     0.14000
N176        N  0.58686879  0.73929509  0.90023823    -0.02400
C177        C  0.60096380  0.73508578  0.90169725     0.00200
C178        C  0.60787271  0.73518359  0.88833622    -0.22600
C179        C  0.59761503  0.73943925  0.87827213    -0.22900
C180        C  0.58484009  0.74197388  0.88587024     0.00100
H181        H  0.61905747  0.73212928  0.88609416     0.13900
H182        H  0.59939067  0.74083409  0.86670702     0.14000
N183        N  0.40767561  0.73891202  0.10025452    -0.02400
C184        C  0.40956602  0.74239114  0.11447203     0.00200
C185        C  0.39729368  0.73872300  0.12239832    -0.22600
C186        C  0.38748183  0.73291558  0.11269301    -0.22900
C187        C  0.39413083  0.73306858  0.09915970     0.00100
H188        H  0.39550742  0.74040454  0.13392470     0.13900
H189        H  0.37672749  0.72882552  0.11530728     0.14000
N190        N  0.59874768  0.74798072  0.09362837    -0.02400
C191        C  0.59761307  0.75235990  0.10767547     0.00200
C192        C  0.61082049  0.75045701  0.11473768    -0.22600
C193        C  0.62040946  0.74489713  0.10461636    -0.22900
C194        C  0.61267310  0.74341163  0.09180316     0.00100
H195        H  0.61328937  0.75302938  0.12597131     0.13900
H196        H  0.63167437  0.74190083  0.10650604     0.14000
O197        O  0.48303428  0.73913799  0.98660985    -0.71800
O198        O  0.51456168  0.73639420  0.01698596    -0.72800
O199        O  0.48378527  0.73802334  0.01776369    -0.61400
O200        O  0.51372594  0.73758685  0.98576206    -0.69800
O201        O  0.51507600  0.76175324  0.98673860    -0.69400
O202        O  0.48470503  0.76222365  0.01853046    -0.60600
O203        O  0.51598467  0.76056066  0.01771773    -0.73100
O204        O  0.48388310  0.76333088  0.98768937    -0.71900
Cu205      Cu  0.49874302  0.73695650  0.00176299     1.04600
Cu206      Cu  0.49997451  0.76282122  0.00271040     1.04300
C207        C  0.47851439  0.75162417  0.98235267     0.94400
C208        C  0.52022853  0.74802324  0.02216406     0.93500
C209        C  0.47947766  0.75015506  0.02313514     0.85700
C210        C  0.51902068  0.74961141  0.98111185     0.91900
N211        N  0.40417886  0.90537801  0.74720469    -0.02400
C212        C  0.40531943  0.89176236  0.75282082     0.00200
C213        C  0.39164895  0.88545073  0.75387714    -0.22600
C214        C  0.38179313  0.89562414  0.74892342    -0.22900
C215        C  0.38979191  0.90771317  0.74483706     0.00100
H216        H  0.38905376  0.87478140  0.75820596     0.13900
H217        H  0.37008849  0.89426875  0.74821922     0.14000
N218        N  0.59417316  0.89646107  0.74593684    -0.02400
C219        C  0.59194010  0.88269508  0.75084651     0.00200
C220        C  0.60476204  0.87476154  0.75006613    -0.22600
C221        C  0.61524194  0.88402768  0.74466383    -0.22900
C222        C  0.60843770  0.89724972  0.74211843     0.00100
H223        H  0.60643668  0.86357779  0.75346982     0.13900
H224        H  0.62656116  0.88133830  0.74264572     0.14000
N225        N  0.41014502  0.09407230  0.74403194    -0.02400
C226        C  0.41187859  0.10765146  0.74961111     0.00200
C227        C  0.39961819  0.11601361  0.74689606    -0.22600
C228        C  0.38993100  0.10717927  0.73959688    -0.22900
C229        C  0.39670909  0.09379545  0.73786705     0.00100
H230        H  0.39782760  0.12724979  0.75007033     0.13900
H231        H  0.37917694  0.11024619  0.73580929     0.14000
N232        N  0.60000200  0.09031065  0.74867638    -0.02400
C233        C  0.59834142  0.10434907  0.75295158     0.00200
C234        C  0.61125688  0.11190227  0.75097873    -0.22600
C235        C  0.62121517  0.10206474  0.74547687    -0.22900
C236        C  0.61394773  0.08894545  0.74408755     0.00100
H237        H  0.61333422  0.12322159  0.75362104     0.13900
H238        H  0.63244044  0.10429779  0.74260084     0.14000
O239        O  0.48728945  0.98076121  0.73250295    -0.71800
O240        O  0.51968171  0.01048098  0.73018365    -0.72800
O241        O  0.51831792  0.97934386  0.73264821    -0.61400
O242        O  0.48878901  0.01188995  0.73003876    -0.69800
O243        O  0.48872888  0.01372615  0.75413834    -0.69400
O244        O  0.51835861  0.98146568  0.75672503    -0.60600
O245        O  0.51981786  0.01210871  0.75430152    -0.73100
O246        O  0.48715743  0.98304074  0.75656390    -0.71900
Cu247      Cu  0.50352112  0.99552895  0.73048862     1.04600
Cu248      Cu  0.50351253  0.99762782  0.75625595     1.04300
C249        C  0.48201341  0.97737479  0.74493881     0.94400
C250        C  0.52483859  0.01595003  0.74190839     0.93500
C251        C  0.52310310  0.97540630  0.74512295     0.85700
C252        C  0.48412218  0.01792981  0.74169268     0.91900
N253        N  0.40596782  0.24463731  0.89939824    -0.02400
C254        C  0.39167671  0.24728154  0.90193931     0.00200
C255        C  0.38350908  0.24395834  0.88973116    -0.22600
C256        C  0.39319126  0.23924767  0.87927568    -0.22900
C257        C  0.40686998  0.23966564  0.88557105     0.00100
H258        H  0.37183624  0.24516421  0.88843707     0.13900
H259        H  0.39050586  0.23562395  0.86838625     0.14000
N260        N  0.59864147  0.24887904  0.90277649    -0.02400
C261        C  0.61264227  0.25302940  0.90494758     0.00200
C262        C  0.62058732  0.25141297  0.89225387    -0.22600
C263        C  0.61106087  0.24627368  0.88187043    -0.22900
C264        C  0.59771939  0.24471355  0.88867784     0.00100
H265        H  0.63201245  0.25390534  0.89065653     0.13900
H266        H  0.61365546  0.24367315  0.87067030     0.14000
N267        N  0.40546300  0.24774622  0.09053621    -0.02400
C268        C  0.40616484  0.24325458  0.10458038     0.00200
C269        C  0.39321314  0.24643275  0.11163529    -0.22600
C270        C  0.38421206  0.25289443  0.10150401    -0.22900
C271        C  0.39203791  0.25364969  0.08865171     0.00100
H272        H  0.39045961  0.24399816  0.12283194     0.13900
H273        H  0.37323287  0.25681657  0.10338602     0.14000
N274        N  0.59559920  0.23847079  0.08960331    -0.02400
C275        C  0.59396439  0.23233494  0.10291357     0.00200
C276        C  0.60707560  0.23256861  0.11035481    -0.22600
C277        C  0.61713562  0.23887192  0.10119658    -0.22900
C278        C  0.60976798  0.24250431  0.08858105     0.00100
H279        H  0.60913238  0.22849054  0.12122114     0.13900
H280        H  0.62851474  0.24086611  0.10360945     0.14000
O281        O  0.51601333  0.23381140  0.98071391    -0.71800
O282        O  0.48463394  0.23666473  0.01125668    -0.72800
O283        O  0.48494160  0.23442245  0.98060010    -0.61400
O284        O  0.51561672  0.23590859  0.01135963    -0.69800
O285        O  0.51612492  0.26009979  0.01002485    -0.69400
O286        O  0.48535274  0.25856689  0.97861948    -0.60600
O287        O  0.48530800  0.26084115  0.00981292    -0.73100
O288        O  0.51634705  0.25796653  0.97896013    -0.71900
Cu289      Cu  0.50027379  0.23438082  0.99602130     1.04600
Cu290      Cu  0.50078929  0.26023438  0.99426800     1.04300
C291        C  0.52116676  0.24546242  0.97506726     0.94400
C292        C  0.48018050  0.24919494  0.01548292     0.93500
C293        C  0.48027305  0.24615991  0.97475196     0.85700
C294        C  0.52067933  0.24815889  0.01561267     0.91900
N295        N  0.25497493  0.40767367  0.89850147    -0.02400
C296        C  0.24967085  0.40945346  0.88482596     0.00200
C297        C  0.25231594  0.39702367  0.87666743    -0.22600
C298        C  0.25931055  0.38727125  0.88569299    -0.22900
C299        C  0.26094701  0.39416806  0.89895369     0.00100
H300        H  0.24913257  0.39508395  0.86548703     0.13900
H301        H  0.26274715  0.37631542  0.88291598     0.14000
N302        N  0.24856818  0.59652337  0.90429879    -0.02400
C303        C  0.24505856  0.59479531  0.89010583     0.00200
C304        C  0.24617174  0.60795066  0.88283646    -0.22600
C305        C  0.25032174  0.61816462  0.89302131    -0.22900
C306        C  0.25177395  0.61081259  0.90607594     0.00100
H307        H  0.24386977  0.60997597  0.87145767     0.13900
H308        H  0.25236911  0.62962241  0.89104142     0.14000
N309        N  0.24746724  0.39876046  0.08649667    -0.02400
C310        C  0.24300888  0.39987801  0.10050595     0.00200
C311        C  0.24453839  0.38659204  0.10748223    -0.22600
C312        C  0.24996617  0.37695984  0.09732116    -0.22900
C313        C  0.25178601  0.38475253  0.08456973     0.00100
H314        H  0.24175987  0.38409638  0.11865867     0.13900
H315        H  0.25259474  0.36558756  0.09913579     0.14000
N316        N  0.24791894  0.59091002  0.09569034    -0.02400
C317        C  0.25133773  0.60518832  0.09425682     0.00200
C318        C  0.24831323  0.61261122  0.10699128    -0.22600
C319        C  0.24292776  0.60245739  0.11664124    -0.22900
C320        C  0.24264934  0.58923161  0.10936095     0.00100
H321        H  0.24990832  0.62412645  0.10906268     0.13900
H322        H  0.23913658  0.60461130  0.12759275     0.14000
O323        O  0.25745722  0.48306297  0.01334509    -0.71800
O324        O  0.26159528  0.51379164  0.98242013    -0.72800
O325        O  0.25928760  0.51396099  0.01352521    -0.61400
O326        O  0.25965923  0.48294618  0.98237296    -0.69800
O327        O  0.23552085  0.48423575  0.98087580    -0.69400
O328        O  0.23518756  0.51534301  0.01156412    -0.60600
O329        O  0.23746429  0.51530776  0.98094113    -0.73100
O330        O  0.23333587  0.48426046  0.01154197    -0.71900
Cu331      Cu  0.26035364  0.49839242  0.99798865     1.04600
Cu332      Cu  0.23454790  0.49984768  0.99617609     1.04300
C333        C  0.24479476  0.47871588  0.01721310     0.94400
C334        C  0.25013363  0.51941512  0.97683717     0.93500
C335        C  0.24710516  0.51956536  0.01738904     0.85700
C336        C  0.24762444  0.47868847  0.97676778     0.91900
N337        N  0.90932342  0.40658039  0.74665807    -0.02400
C338        C  0.89502381  0.40811445  0.75006927     0.00200
C339        C  0.88816414  0.39467320  0.74964661    -0.22600
C340        C  0.89864097  0.38456039  0.74601615    -0.22900
C341        C  0.91149944  0.39217409  0.74417764     0.00100
H342        H  0.87684678  0.39238797  0.75209034     0.13900
H343        H  0.89696635  0.37296589  0.74453142     0.14000
N344        N  0.89688712  0.59099595  0.74039446    -0.02400
C345        C  0.89802466  0.60467287  0.73495476     0.00200
C346        C  0.88447655  0.61126436  0.73448637    -0.22600
C347        C  0.87465239  0.60120791  0.73973866    -0.22900
C348        C  0.88257279  0.58887092  0.74342605     0.00100
H349        H  0.88198571  0.62213857  0.73061112     0.13900
H350        H  0.86305500  0.60291668  0.74113861     0.14000
N351        N  0.09849224  0.41205380  0.73850470    -0.02400
C352        C  0.11254390  0.41424965  0.74244423     0.00200
C353        C  0.12078185  0.40194483  0.73955068    -0.22600
C354        C  0.11139165  0.39178103  0.73370266    -0.22900
C355        C  0.09785311  0.39837118  0.73301390     0.00100
H356        H  0.13230396  0.40045286  0.74164748     0.13900
H357        H  0.11415751  0.38084398  0.73020338     0.14000
N358        N  0.09294966  0.60262834  0.75608912    -0.02400
C359        C  0.09039450  0.61661617  0.75216011     0.00200
C360        C  0.10264195  0.62505602  0.75444965    -0.22600
C361        C  0.11320546  0.61583053  0.75983359    -0.22900
C362        C  0.10691907  0.60215268  0.76086151     0.00100
H363        H  0.10384680  0.63658221  0.75218758     0.13900
H364        H  0.12422573  0.61881589  0.76281795     0.14000
O365        O  0.01478164  0.52165039  0.75409865    -0.71800
O366        O  0.98577924  0.48884519  0.75247774    -0.72800
O367        O  0.01657103  0.49067564  0.75436875    -0.61400
O368        O  0.98382476  0.51983347  0.75224917    -0.69800
O369        O  0.98511571  0.51950703  0.72811152    -0.69400
O370        O  0.01803719  0.49051136  0.73024894    -0.60600
O371        O  0.98694567  0.48885720  0.72833224    -0.73100
O372        O  0.01642016  0.52140731  0.72999275    -0.71900
Cu373      Cu  0.00020128  0.50528599  0.75412884     1.04600
Cu374      Cu  0.00170863  0.50510438  0.72832212     1.04300
C375        C  0.02036768  0.52653860  0.74232435     0.94400
C376        C  0.98167718  0.48378783  0.74017181     0.93500
C377        C  0.02242227  0.48594762  0.74265698     0.85700
C378        C  0.97907455  0.52397415  0.73983659     0.91900
N379        N  0.75297087  0.40396299  0.90966925    -0.02400
C380        C  0.75714209  0.40496834  0.89550705     0.00200
C381        C  0.75538788  0.39161060  0.88868888    -0.22600
C382        C  0.75011580  0.38209588  0.89897466    -0.22900
C383        C  0.74860494  0.38996210  0.91170038     0.00100
H384        H  0.75779070  0.38901517  0.87744471     0.13900
H385        H  0.74737808  0.37073715  0.89727005     0.14000
N386        N  0.74358154  0.58863494  0.89979800    -0.02400
C387        C  0.74745406  0.58658632  0.88571663     0.00200
C388        C  0.74627750  0.59958533  0.87813263    -0.22600
C389        C  0.74161400  0.60994847  0.88793775    -0.22900
C390        C  0.73992604  0.60289367  0.90111840     0.00100
H391        H  0.74882367  0.60142631  0.86677561     0.13900
H392        H  0.73935723  0.62130498  0.88560555     0.14000
N393        N  0.73541444  0.41057721  0.10131085    -0.02400
C394        C  0.73747835  0.41260711  0.11575176     0.00200
C395        C  0.73296308  0.40045337  0.12342191    -0.22600
C396        C  0.72809189  0.39052779  0.11326948    -0.22900
C397        C  0.72963549  0.39709002  0.09981253     0.00100
H398        H  0.73343046  0.39886186  0.13508781     0.13900
H399        H  0.72360731  0.37983542  0.11548014     0.14000
N400        N  0.74346919  0.59607842  0.09818987    -0.02400
C401        C  0.74828791  0.59499882  0.11209130     0.00200
C402        C  0.74682948  0.60830164  0.11907084    -0.22600
C403        C  0.74111208  0.61788832  0.10902971    -0.22900
C404        C  0.73905420  0.61007194  0.09632586     0.00100
H405        H  0.74999623  0.61088550  0.13012555     0.13900
H406        H  0.73864726  0.62929764  0.11084329     0.14000
O407        O  0.73161585  0.48823467  0.01837668    -0.71800
O408        O  0.73480792  0.51648831  0.98531506    -0.72800
O409        O  0.73313479  0.48574839  0.98744076    -0.61400
O410        O  0.73346052  0.51886029  0.01627539    -0.69800
O411        O  0.75762652  0.51751333  0.01733846    -0.69400
O412        O  0.75728411  0.48449228  0.98854222    -0.60600
O413        O  0.75897599  0.51560731  0.98667218    -0.73100
O414        O  0.75573415  0.48640543  0.01951799    -0.71900
Cu415      Cu  0.73242866  0.50236392  0.00180383     1.04600
Cu416      Cu  0.75826267  0.50093129  0.00306209     1.04300
C417        C  0.74307249  0.48291103  0.02422953     0.94400
C418        C  0.74733265  0.52060856  0.98084408     0.93500
C419        C  0.74516261  0.47997930  0.98335431     0.85700
C420        C  0.74563540  0.52338844  0.02132420     0.91900
N421        N  0.90085080  0.40214705  0.24570312    -0.02400
C422        C  0.90224476  0.38826606  0.25054581     0.00200
C423        C  0.88888722  0.38130100  0.25041091    -0.22600
C424        C  0.87889231  0.39132636  0.24547804    -0.22900
C425        C  0.88651967  0.40403744  0.24261772     0.00100
H426        H  0.88658178  0.37026558  0.25391470     0.13900
H427        H  0.86733144  0.38946155  0.24401395     0.14000
N428        N  0.90666536  0.58539284  0.25601415    -0.02400
C429        C  0.90880056  0.59941640  0.26007532     0.00200
C430        C  0.89597475  0.60727150  0.25876396    -0.22600
C431        C  0.88556055  0.59765140  0.25387911    -0.22900
C432        C  0.89245340  0.58432728  0.25225574     0.00100
H433        H  0.89427279  0.61865127  0.26143488     0.13900
H434        H  0.87428738  0.60018190  0.25144221     0.14000
N435        N  0.09204229  0.39098545  0.23886853    -0.02400
C436        C  0.08996551  0.37658147  0.24143569     0.00200
C437        C  0.10221554  0.36878287  0.23733770    -0.22600
C438        C  0.11218049  0.37880365  0.23222499    -0.22900
C439        C  0.10558328  0.39235738  0.23316075     0.00100
H440        H  0.10383077  0.35711142  0.23816347     0.13900
H441        H  0.12291768  0.37640672  0.22794291     0.14000
N442        N  0.09928058  0.58446017  0.25293487    -0.02400
C443        C  0.09766490  0.59847612  0.25719126     0.00200
C444        C  0.11104631  0.60538500  0.25765173    -0.22600
C445        C  0.12128435  0.59514042  0.25360429    -0.22900
C446        C  0.11371396  0.58244108  0.25067446     0.00100
H447        H  0.11315563  0.61656575  0.26080595     0.13900
H448        H  0.13289693  0.59690837  0.25245081     0.14000
O449        O  0.01924590  0.50566276  0.23731961    -0.71800
O450        O  0.98483340  0.47799349  0.23611388    -0.72800
O451        O  0.98852869  0.50891885  0.23805317    -0.61400
O452        O  0.01553068  0.47473135  0.23509932    -0.69800
O453        O  0.01661758  0.47313858  0.25920000    -0.69400
O454        O  0.98857132  0.50700371  0.26216128    -0.60600
O455        O  0.98564973  0.47644406  0.26021845    -0.73100
O456        O  0.01966502  0.50379052  0.26141158    -0.71900
Cu457      Cu  0.00203869  0.49188828  0.23580029     1.04600
Cu458      Cu  0.00266450  0.49004395  0.26158579     1.04300
C459        C  0.02483270  0.50906488  0.24962978     0.94400
C460        C  0.97980713  0.47294436  0.24809566     0.93500
C461        C  0.98412162  0.51322469  0.25051279     0.85700
C462        C  0.02032835  0.46853493  0.24658645     0.91900
N463        N  0.89851100  0.25109493  0.40346103    -0.02400
C464        C  0.89964058  0.25467155  0.38919883     0.00200
C465        C  0.88662225  0.25187468  0.38212896    -0.22600
C466        C  0.87715588  0.24654536  0.39247938    -0.22900
C467        C  0.88478816  0.24606570  0.40545192     0.00100
H468        H  0.88416925  0.25377422  0.37076035     0.13900
H469        H  0.86601144  0.24311305  0.39066384     0.14000
N470        N  0.91416377  0.23907198  0.59430024    -0.02400
C471        C  0.91612812  0.24386479  0.60813211     0.00200
C472        C  0.90396367  0.24074927  0.61646875    -0.22600
C473        C  0.89416810  0.23394159  0.60744090    -0.22900
C474        C  0.90070830  0.23296234  0.59390226     0.00100
H475        H  0.90217807  0.24356059  0.62777515     0.13900
H476        H  0.88344129  0.23006860  0.61047007     0.14000
N477        N  0.09303066  0.24394345  0.39361251    -0.02400
C478        C  0.09176568  0.24793696  0.37949251     0.00200
C479        C  0.10509980  0.24688049  0.37255360    -0.22600
C480        C  0.11495728  0.24224694  0.38287200    -0.22900
C481        C  0.10721912  0.24044017  0.39565743     0.00100
H482        H  0.10747865  0.24954091  0.36132255     0.13900
H483        H  0.12645928  0.24019098  0.38116997     0.14000
N484        N  0.09587870  0.25122512  0.58620411    -0.02400
C485        C  0.09392061  0.25608601  0.59999345     0.00200
C486        C  0.10650467  0.25392431  0.60803377    -0.22600
C487        C  0.11654820  0.24767897  0.59880241    -0.22900
C488        C  0.10969586  0.24603820  0.58550795     0.00100
H489        H  0.10829548  0.25682742  0.61931521     0.13900
H490        H  0.12757737  0.24448719  0.60155855     0.14000
O491        O  0.01571130  0.23813370  0.47519422    -0.71800
O492        O  0.98537229  0.23693667  0.50684691    -0.72800
O493        O  0.98497354  0.23773702  0.47573954    -0.61400
O494        O  0.01602545  0.23726088  0.50634462    -0.69800
O495        O  0.01598276  0.26148791  0.50698012    -0.69400
O496        O  0.98436117  0.26195514  0.47639603    -0.60600
O497        O  0.98475538  0.26115880  0.50727856    -0.73100
O498        O  0.01561229  0.26234559  0.47601330    -0.71900
Cu499      Cu  0.00053805  0.23669406  0.49099271     1.04600
Cu500      Cu  0.00017775  0.26260441  0.49167757     1.04300
C501        C  0.02043146  0.25042090  0.47060669     0.94400
C502        C  0.98032947  0.24884441  0.51207653     0.93500
C503        C  0.97974518  0.24984411  0.47124945     0.85700
C504        C  0.02079514  0.24923147  0.51160912     0.91900
O505        O  0.01052249  0.31826621  0.29646589    -0.71800
O506        O  0.97963843  0.29665668  0.31862767    -0.72800
O507        O  0.97976334  0.31758950  0.29598844    -0.61400
O508        O  0.01053025  0.29723722  0.31929173    -0.69800
O509        O  0.00982484  0.31486284  0.33587012    -0.69400
O510        O  0.97942421  0.33549054  0.31229761    -0.60600
O511        O  0.97902260  0.31436099  0.33512102    -0.73100
O512        O  0.01009184  0.33596572  0.31296382    -0.71900
Cu513      Cu  0.99515779  0.30680263  0.30704360     1.04600
Cu514      Cu  0.99457184  0.32578685  0.32465253     1.04300
C515        C  0.01496514  0.33065953  0.30104444     0.94400
C516        C  0.97447193  0.30206826  0.33036237     0.93500
C517        C  0.97494117  0.32989999  0.30037081     0.85700
C518        C  0.01489762  0.30270862  0.33132417     0.91900
O519        O  0.82053161  0.15389464  0.48412092    -0.71800
O520        O  0.84434997  0.17257410  0.51590008    -0.72800
O521        O  0.82028428  0.15255865  0.51501264    -0.61400
O522        O  0.84447026  0.17415632  0.48508219    -0.69800
O523        O  0.82862125  0.19245259  0.48617615    -0.69400
O524        O  0.80472559  0.17113710  0.51543592    -0.60600
O525        O  0.82830153  0.19072011  0.51687213    -0.73100
O526        O  0.80513753  0.17260890  0.48465903    -0.71900
Cu527      Cu  0.83297147  0.16260257  0.49999435     1.04600
Cu528      Cu  0.81617758  0.18233936  0.50080623     1.04300
C529        C  0.80909446  0.16032824  0.47938873     0.94400
C530        C  0.84001409  0.18464872  0.52136017     0.93500
C531        C  0.80863546  0.15854412  0.51987526     0.85700
C532        C  0.84031430  0.18687297  0.48107571     0.91900
O533        O  0.16864538  0.19101636  0.50682070    -0.71800
O534        O  0.19070317  0.16980916  0.47562069    -0.72800
O535        O  0.16772153  0.19056535  0.47607683    -0.61400
O536        O  0.19166333  0.17021010  0.50642108    -0.69800
O537        O  0.17548266  0.15222184  0.50721062    -0.69400
O538        O  0.15147538  0.17263535  0.47666940    -0.60600
O539        O  0.17461862  0.15173676  0.47658599    -0.73100
O540        O  0.15219907  0.17326958  0.50745333    -0.71900
Cu541      Cu  0.18024122  0.18101856  0.49122101     1.04600
Cu542      Cu  0.16286708  0.16183311  0.49202229     1.04300
C543        C  0.15681441  0.18566194  0.51185961     0.94400
C544        C  0.18624060  0.15733283  0.47133027     0.93500
C545        C  0.15578495  0.18490337  0.47165822     0.85700
C546        C  0.18750236  0.15789145  0.51141362     0.91900
O547        O  0.79363563  0.48631759  0.17942555    -0.71800
O548        O  0.81654766  0.51424625  0.20400453    -0.72800
O549        O  0.79493948  0.51705690  0.18186299    -0.61400
O550        O  0.81517471  0.48366012  0.20155150    -0.69800
O551        O  0.83286797  0.48461971  0.18506537    -0.69400
O552        O  0.81188329  0.51717327  0.16459832    -0.60600
O553        O  0.83368433  0.51508677  0.18694078    -0.73100
O554        O  0.81126043  0.48636703  0.16285056    -0.71900
Cu555      Cu  0.80445180  0.50031794  0.19228211     1.04600
Cu556      Cu  0.82301550  0.50085899  0.17425580     1.04300
C557        C  0.79883034  0.48192368  0.16727670     0.94400
C558        C  0.82892566  0.51875130  0.19949651     0.93500
C559        C  0.80000190  0.52215037  0.16994770     0.85700
C560        C  0.82741445  0.47916555  0.19664418     0.91900
O561        O  0.17481031  0.47448019  0.19355219    -0.71800
O562        O  0.19642329  0.50712149  0.17429388    -0.72800
O563        O  0.17402772  0.50525183  0.19540182    -0.61400
O564        O  0.19719484  0.47626953  0.17240328    -0.69800
O565        O  0.18047708  0.47660756  0.15491869    -0.69400
O566        O  0.15757564  0.50626668  0.17769235    -0.60600
O567        O  0.18020248  0.50744662  0.15634718    -0.73100
O568        O  0.15773739  0.47540083  0.17643705    -0.71900
Cu569      Cu  0.18618472  0.49075625  0.18450089     1.04600
Cu570      Cu  0.16839898  0.49144670  0.16571567     1.04300
C571        C  0.16277183  0.46994835  0.18823457     0.94400
C572        C  0.19185611  0.51233023  0.16223322     0.93500
C573        C  0.16211497  0.51028340  0.19021778     0.85700
C574        C  0.19257703  0.47191827  0.16002700     0.91900
O575        O  0.67113589  0.30511204  0.98583235    -0.71800
O576        O  0.69207931  0.32622831  0.01801729    -0.72800
O577        O  0.67034319  0.30410839  0.01651933    -0.61400
O578        O  0.69306398  0.32730930  0.98717129    -0.69800
O579        O  0.67568720  0.34418506  0.98713664    -0.69400
O580        O  0.65300015  0.32102502  0.01675578    -0.60600
O581        O  0.67483795  0.34325621  0.01788221    -0.73100
O582        O  0.65376500  0.32200600  0.98610768    -0.71900
Cu583      Cu  0.68226930  0.31510585  0.00186903     1.04600
Cu584      Cu  0.66373816  0.33322177  0.00196502     1.04300
C585        C  0.65893792  0.31003902  0.98118874     0.94400
C586        C  0.68680665  0.33817923  0.02290489     0.93500
C587        C  0.65800869  0.30874498  0.02107956     0.85700
C588        C  0.68805454  0.33952572  0.98266671     0.91900
O589        O  0.79361798  0.50899100  0.81555793    -0.71800
O590        O  0.81763456  0.47979829  0.79371978    -0.72800
O591        O  0.79635801  0.47824546  0.81644598    -0.61400
O592        O  0.81494966  0.51053194  0.79314389    -0.69800
O593        O  0.83237455  0.51240911  0.80981646    -0.69400
O594        O  0.81391944  0.48014134  0.83296626    -0.60600
O595        O  0.83534009  0.48186328  0.81007706    -0.73100
O596        O  0.81086440  0.51066622  0.83244885    -0.71900
Cu597      Cu  0.80503508  0.49430124  0.80414275     1.04600
Cu598      Cu  0.82374014  0.49631797  0.82190727     1.04300
C599        C  0.79830281  0.51423534  0.82754960     0.94400
C600        C  0.83042295  0.47655160  0.79817493     0.93500
C601        C  0.80200167  0.47440364  0.82859470     0.85700
C602        C  0.82674114  0.51638516  0.79772497     0.91900
O603        O  0.01757633  0.34613005  0.66964717    -0.71800
O604        O  0.98583422  0.32076694  0.65293433    -0.72800
O605        O  0.98683070  0.34525203  0.67251488    -0.61400
O606        O  0.01644232  0.32173738  0.65012331    -0.69800
O607        O  0.01857771  0.30689227  0.66909753    -0.69400
O608        O  0.98872470  0.32993085  0.69113641    -0.60600
O609        O  0.98798861  0.30574606  0.67177226    -0.73100
O610        O  0.01934463  0.33113091  0.68853218    -0.71900
Cu611      Cu  0.00157129  0.33402514  0.66064733     1.04600
Cu612      Cu  0.00373365  0.31791468  0.68077295     1.04300
C613        C  0.02329636  0.34271497  0.68187655     0.94400
C614        C  0.98221647  0.30904226  0.65955465     0.93500
C615        C  0.98328109  0.34141064  0.68541897     0.85700
C616        C  0.02200664  0.31042787  0.65608577     0.91900
O617        O  0.19428225  0.48767360  0.82184597    -0.71800
O618        O  0.17073438  0.52074463  0.80562984    -0.72800
O619        O  0.19360942  0.51815304  0.82640379    -0.61400
O620        O  0.17124018  0.49028498  0.80110583    -0.69800
O621        O  0.15519699  0.48717291  0.81893275    -0.69400
O622        O  0.17704022  0.51568132  0.84385058    -0.60600
O623        O  0.15407784  0.51765888  0.82289459    -0.73100
O624        O  0.17834795  0.48519266  0.83987004    -0.71900
Cu625      Cu  0.18303403  0.50430680  0.81313603     1.04600
Cu626      Cu  0.16559382  0.50130552  0.83200389     1.04300
C627        C  0.19026962  0.48149268  0.83364135     0.94400
C628        C  0.15857201  0.52422464  0.81147266     0.93500
C629        C  0.18890938  0.52122571  0.83914773     0.85700
C630        C  0.15953171  0.48451416  0.80598159     0.91900
O631        O  0.31102623  0.32880460  0.97573045    -0.71800
O632        O  0.32939852  0.30433084  0.00702419    -0.72800
O633        O  0.30857911  0.32724940  0.00624862    -0.61400
O634        O  0.33189407  0.30569895  0.97643039    -0.69800
O635        O  0.34984294  0.32183554  0.97822097    -0.69400
O636        O  0.32636701  0.34352863  0.00835400    -0.60600
O637        O  0.34751001  0.32027278  0.00889802    -0.73100
O638        O  0.32886640  0.34503313  0.97767621    -0.71900
Cu639      Cu  0.31963360  0.31596470  0.99126144     1.04600
Cu640      Cu  0.33878832  0.33324778  0.99337229     1.04300
C641        C  0.31683479  0.34091196  0.97198065     0.94400
C642        C  0.34144084  0.30832380  0.01276462     0.93500
C643        C  0.31366524  0.33893851  0.01183252     0.85700
C644        C  0.34458775  0.31012843  0.97279344     0.91900
O645        O  0.48951122  0.17450999  0.84093461    -0.71800
O646        O  0.52071065  0.15456468  0.81756212    -0.72800
O647        O  0.52027833  0.17474540  0.84137947    -0.61400
O648        O  0.48986221  0.15436253  0.81710987    -0.69800
O649        O  0.49023978  0.17281419  0.80146342    -0.69400
O650        O  0.52016877  0.19320721  0.82573903    -0.60600
O651        O  0.52100361  0.17318591  0.80210939    -0.73100
O652        O  0.48939345  0.19277333  0.82505178    -0.71900
Cu653      Cu  0.50509598  0.16388238  0.82979909     1.04600
Cu654      Cu  0.50521150  0.18362995  0.81306111     1.04300
C655        C  0.48463744  0.18686898  0.83671873     0.94400
C656        C  0.52563472  0.16064483  0.80604661     0.93500
C657        C  0.52480977  0.18733569  0.83747314     0.85700
C658        C  0.48540910  0.16034311  0.80533868     0.91900
O659        O  0.48162001  0.15240025  0.17731942    -0.71800
O660        O  0.51156316  0.17478401  0.15431123    -0.72800
O661        O  0.51235180  0.15199446  0.17552300    -0.61400
O662        O  0.48076504  0.17534918  0.15600591    -0.69800
O663        O  0.48208767  0.19197114  0.17354602    -0.69400
O664        O  0.51303191  0.16843059  0.19327436    -0.60600
O665        O  0.51293466  0.19102629  0.17219491    -0.73100
O666        O  0.48238489  0.16935365  0.19457619    -0.71900
Cu667      Cu  0.49651457  0.16305305  0.16514642     1.04600
Cu668      Cu  0.49765607  0.18077257  0.18398597     1.04300
C669        C  0.47743184  0.15730052  0.18966931     0.94400
C670        C  0.51698584  0.18643965  0.15969619     0.93500
C671        C  0.51741929  0.15643490  0.18769537     0.85700
C672        C  0.47661794  0.18744819  0.16159136     0.91900
O673        O  0.32760902  0.01531072  0.69032628    -0.71800
O674        O  0.30763251  0.98353254  0.66753744    -0.72800
O675        O  0.32943725  0.98454431  0.68961566    -0.61400
O676        O  0.30574714  0.01433575  0.66849806    -0.69800
O677        O  0.32267384  0.01585933  0.65128529    -0.69400
O678        O  0.34663843  0.98571516  0.67265063    -0.60600
O679        O  0.32472823  0.98505965  0.65050209    -0.73100
O680        O  0.34485773  0.01651113  0.67341137    -0.71900
Cu681      Cu  0.31702151  0.99936974  0.67957518     1.04600
Cu682      Cu  0.33533222  0.00084530  0.66135791     1.04300
C683        C  0.33951220  0.02075563  0.68554895     0.94400
C684        C  0.31292778  0.97944719  0.65530866     0.93500
C685        C  0.34183246  0.98056711  0.68466150     0.85700
C686        C  0.31029983  0.01967001  0.65650266     0.91900
O687        O  0.51049092  0.81565812  0.84003374    -0.71800
O688        O  0.48202124  0.83881458  0.81588208    -0.72800
O689        O  0.47983336  0.81828799  0.83937229    -0.61400
O690        O  0.51266911  0.83630775  0.81656940    -0.69800
O691        O  0.51143374  0.81813937  0.80063023    -0.69400
O692        O  0.47891734  0.79991620  0.82364840    -0.60600
O693        O  0.48060556  0.82026562  0.80038396    -0.73100
O694        O  0.50955817  0.79769110  0.82384382    -0.71900
Cu695      Cu  0.49630236  0.82792139  0.82852464     1.04600
Cu696      Cu  0.49509511  0.80840159  0.81156081     1.04300
C697        C  0.51429767  0.80290561  0.83583216     0.94400
C698        C  0.47688234  0.83311715  0.80426325     0.93500
C699        C  0.47446171  0.80607939  0.83531761     0.85700
C700        C  0.51703980  0.83018516  0.80484738     0.91900
O701        O  0.34207345  0.67537681  0.01753114    -0.71800
O702        O  0.32107350  0.65390312  0.98582151    -0.72800
O703        O  0.34204935  0.67710835  0.98693196    -0.61400
O704        O  0.32113587  0.65232580  0.01653657    -0.69800
O705        O  0.30300220  0.66838799  0.01703856    -0.69400
O706        O  0.32415323  0.69339832  0.98813287    -0.60600
O707        O  0.30330851  0.67037803  0.98639974    -0.73100
O708        O  0.32377939  0.69122703  0.01892258    -0.71900
Cu709      Cu  0.33221358  0.66410731  0.00165013     1.04600
Cu710      Cu  0.31294737  0.68142291  0.00262972     1.04300
C711        C  0.33624180  0.68668951  0.02320663     0.94400
C712        C  0.30875872  0.65859917  0.98129405     0.93500
C713        C  0.33651870  0.68934582  0.98313605     0.85700
C714        C  0.30867056  0.65638549  0.02130134     0.91900
O715        O  0.51881979  0.79388019  0.17977645    -0.71800
O716        O  0.48773505  0.81459504  0.20254886    -0.72800
O717        O  0.48792806  0.79251960  0.18113703    -0.61400
O718        O  0.51877226  0.81607232  0.20126198    -0.69800
O719        O  0.51753508  0.83279010  0.18382012    -0.69400
O720        O  0.48629887  0.80936200  0.16384149    -0.60600
O721        O  0.48672243  0.83173544  0.18548436    -0.73100
O722        O  0.51714028  0.81042017  0.16219885    -0.71900
Cu723      Cu  0.50337746  0.80369307  0.19178632     1.04600
Cu724      Cu  0.50186769  0.82167795  0.17323029     1.04300
C725        C  0.52277956  0.79875845  0.16736406     0.94400
C726        C  0.48236441  0.82646137  0.19760537     0.93500
C727        C  0.48226133  0.79719633  0.16932322     0.85700
C728        C  0.52304336  0.82812519  0.19572811     0.91900
O729        O  0.33547282  0.00840062  0.31396556    -0.71800
O730        O  0.31552917  0.97594621  0.33555699    -0.72800
O731        O  0.33665690  0.97775039  0.31243157    -0.61400
O732        O  0.31436159  0.00665516  0.33681986    -0.69800
O733        O  0.29661777  0.00644397  0.32037570    -0.69400
O734        O  0.31875280  0.97766669  0.29616170    -0.60600
O735        O  0.29775374  0.97568692  0.31916128    -0.73100
O736        O  0.31760007  0.00849710  0.29766349    -0.71900
Cu737      Cu  0.32613265  0.99215835  0.32525799     1.04600
Cu738      Cu  0.30706735  0.99206122  0.30776647     1.04300
C739        C  0.32977452  0.01344875  0.30231632     0.94400
C740        C  0.30332565  0.97097110  0.33103453     0.93500
C741        C  0.33135910  0.97342522  0.30029564     0.85700
C742        C  0.30183160  0.01093901  0.33246324     0.91900
O743        O  0.19651634  0.82296307  0.51539256    -0.71800
O744        O  0.17448995  0.79881514  0.48643961    -0.72800
O745        O  0.19485025  0.82228664  0.48459088    -0.61400
O746        O  0.17614818  0.79967972  0.51719479    -0.69800
O747        O  0.15777005  0.81546657  0.51760224    -0.69400
O748        O  0.17663063  0.83823116  0.48525254    -0.60600
O749        O  0.15615653  0.81464720  0.48693011    -0.73100
O750        O  0.17827068  0.83888524  0.51612242    -0.71900
Cu751      Cu  0.18613054  0.81038942  0.50087219     1.04600
Cu752      Cu  0.16657542  0.82737929  0.50148651     1.04300
C753        C  0.19093462  0.83476607  0.52027826     0.94400
C754        C  0.16176966  0.80274035  0.48230664     0.93500
C755        C  0.18877961  0.83395129  0.47990954     0.85700
C756        C  0.16392228  0.80390853  0.52239722     0.91900
O757        O  0.98890024  0.66623982  0.30551548    -0.71800
O758        O  0.02216726  0.68568439  0.32562587    -0.72800
O759        O  0.01940513  0.66287721  0.30499462    -0.61400
O760        O  0.99142014  0.68895840  0.32624266    -0.69800
O761        O  0.98968440  0.67251760  0.34390046    -0.69400
O762        O  0.01840245  0.64681968  0.32306104    -0.60600
O763        O  0.02046371  0.66994005  0.34391859    -0.73100
O764        O  0.98779969  0.64950247  0.32296527    -0.71900
Cu765      Cu  0.00552067  0.67650723  0.31499538     1.04600
Cu766      Cu  0.00403624  0.65913007  0.33411918     1.04300
C767        C  0.98335734  0.65463461  0.31080791     0.94400
C768        C  0.02646456  0.68104674  0.33800375     0.93500
C769        C  0.02318340  0.65067370  0.31058058     0.85700
C770        C  0.98613226  0.68484362  0.33844214     0.91900
O771        O  0.82103415  0.83721885  0.47604741    -0.71800
O772        O  0.84045185  0.81597670  0.50861866    -0.72800
O773        O  0.81797462  0.83705330  0.50652884    -0.61400
O774        O  0.84351230  0.81608697  0.47812766    -0.69800
O775        O  0.85984414  0.83389765  0.47941572    -0.69400
O776        O  0.83424849  0.85485763  0.50850155    -0.60600
O777        O  0.85712909  0.83345278  0.51018364    -0.73100
O778        O  0.83706483  0.85527268  0.47782452    -0.71900
Cu779      Cu  0.83019228  0.82599821  0.49227485     1.04600
Cu780      Cu  0.84767579  0.84501185  0.49405507     1.04300
C781        C  0.82575913  0.84965876  0.47194191     0.94400
C782        C  0.85200857  0.82117849  0.51436437     0.93500
C783        C  0.82192358  0.84928613  0.51188688     0.85700
C784        C  0.85573750  0.82156936  0.47434034     0.91900
O785        O  0.70250005  0.98594997  0.31622761    -0.71800
O786        O  0.67600556  0.01530831  0.29756344    -0.72800
O787        O  0.69960549  0.01666388  0.31754251    -0.61400
O788        O  0.67928207  0.98465309  0.29623409    -0.69800
O789        O  0.66308286  0.98265967  0.31410108    -0.69400
O790        O  0.68447802  0.01425668  0.33625565    -0.60600
O791        O  0.66062818  0.01329890  0.31613143    -0.73100
O792        O  0.68672764  0.98356417  0.33442767    -0.71900
Cu793      Cu  0.68988350  0.00075672  0.30626931     1.04600
Cu794      Cu  0.67317458  0.99837746  0.32589292     1.04300
C795        C  0.69873951  0.98012030  0.32828123     0.94400
C796        C  0.66402420  0.01875223  0.30381048     0.93500
C797        C  0.69552091  0.02035883  0.33030755     0.85700
C798        C  0.66795459  0.97869073  0.30165632     0.91900
O799        O  0.98138572  0.69941875  0.67773857    -0.71800
O800        O  0.01024728  0.67508340  0.69972208    -0.72800
O801        O  0.01223803  0.69803438  0.67909441    -0.61400
O802        O  0.97944780  0.67648694  0.69836901    -0.69800
O803        O  0.97994735  0.65997429  0.68068498    -0.69400
O804        O  0.01206882  0.68215583  0.66083207    -0.60600
O805        O  0.01084514  0.65909981  0.68156592    -0.73100
O806        O  0.98134829  0.68317044  0.65980125    -0.71900
Cu807      Cu  0.99581830  0.68781736  0.68935008     1.04600
Cu808      Cu  0.99603018  0.67051716  0.67009350     1.04300
C809        C  0.97693199  0.69522925  0.66524681     0.94400
C810        C  0.01512975  0.66328085  0.69412785     0.93500
C811        C  0.01720383  0.69361460  0.66686470     0.85700
C812        C  0.97469943  0.66468810  0.69269979     0.91900
O813        O  0.67667949  0.97795457  0.65114399    -0.71800
O814        O  0.65342789  0.00739762  0.67414452    -0.72800
O815        O  0.67607859  0.00861837  0.65267584    -0.61400
O816        O  0.65382949  0.97655514  0.67265229    -0.69800
O817        O  0.67045146  0.97594298  0.69021552    -0.69400
O818        O  0.69249886  0.00800524  0.67043845    -0.60600
O819        O  0.67011387  0.00668346  0.69164458    -0.73100
O820        O  0.69294668  0.97729126  0.66904396    -0.71900
Cu821      Cu  0.66438712  0.99263410  0.66203109     1.04600
Cu822      Cu  0.68206306  0.99194761  0.68092555     1.04300
C823        C  0.68867931  0.97322505  0.65645603     0.94400
C824        C  0.65812147  0.01161046  0.68656422     0.93500
C825        C  0.68794669  0.01318791  0.65835555     0.85700
C826        C  0.65849745  0.97138696  0.68471400     0.91900
O827        O  0.64791572  0.66782399  0.98143339    -0.71800
O828        O  0.67128862  0.64707042  0.01199777    -0.72800
O829        O  0.64920793  0.66909954  0.01227608    -0.61400
O830        O  0.67021178  0.64598034  0.98130390    -0.69800
O831        O  0.68709281  0.66328226  0.98013604    -0.69400
O832        O  0.66623531  0.68623115  0.01083758    -0.60600
O833        O  0.68821942  0.66433312  0.01095168    -0.73100
O834        O  0.66486498  0.68503332  0.98000658    -0.71900
Cu835      Cu  0.65905325  0.65689993  0.99678837     1.04600
Cu836      Cu  0.67718730  0.67531937  0.99542394     1.04300
C837        C  0.65260341  0.67974509  0.97597463     0.94400
C838        C  0.68345999  0.65233219  0.01623113     0.93500
C839        C  0.65442871  0.68136899  0.01638142     0.85700
C840        C  0.68211800  0.65094013  0.97602042     0.91900
C841        C  0.04917828  0.28305646  0.63999933     0.17100
C842        C  0.05936297  0.27191276  0.63782769    -0.32000
C843        C  0.06558333  0.27061137  0.62398476     0.21500
C844        C  0.06165347  0.27976357  0.61262554     0.03700
C845        C  0.05131536  0.29089990  0.61476416    -0.21700
C846        C  0.04529991  0.29241245  0.62877415     0.12800
S847        S  0.04096571  0.28667518  0.65622952    -0.05400
C848        C  0.03229568  0.30113851  0.64798228    -0.08800
C849        C  0.03556753  0.30288219  0.63331252    -0.25400
S850        S  0.07119137  0.27671876  0.59688103    -0.02600
C851        C  0.08072327  0.26321301  0.60589279    -0.16100
C852        C  0.07645124  0.26114396  0.62019244    -0.14100
H853        H  0.06259289  0.26479139  0.64666964     0.21300
H854        H  0.04839191  0.29827989  0.60603146     0.17300
H855        H  0.03109245  0.31133045  0.62637916     0.19900
H856        H  0.08146623  0.25345870  0.62762871     0.13200
C857        C  0.13041179  0.20487990  0.53815869     0.17100
C858        C  0.11850971  0.20954298  0.54659953    -0.32000
C859        C  0.12051080  0.22183190  0.55552953     0.21500
C860        C  0.13377920  0.22907869  0.55604159     0.03700
C861        C  0.14555355  0.22457552  0.54744974    -0.21700
C862        C  0.14355375  0.21234766  0.53853977     0.12800
S863        S  0.13046193  0.19000567  0.52690337    -0.05400
C864        C  0.14832047  0.19404534  0.52259610    -0.08800
C865        C  0.15381662  0.20625079  0.52958825    -0.25400
S866        S  0.13451037  0.24293640  0.56837422    -0.02600
C867        C  0.11668540  0.23913288  0.57281541    -0.16100
C868        C  0.11054844  0.22768971  0.56506043    -0.14100
H869        H  0.10823635  0.20372631  0.54638870     0.21300
H870        H  0.15592724  0.23020197  0.54789783     0.17300
H871        H  0.16477426  0.21043976  0.52821272     0.19900
H872        H  0.09972521  0.22335331  0.56689619     0.13200
C873        C  0.07074778  0.25786969  0.55413580     0.17100
C874        C  0.06331529  0.26335481  0.54195546    -0.32000
C875        C  0.05105297  0.25562981  0.53705201     0.21500
C876        C  0.04653042  0.24289650  0.54385449     0.03700
C877        C  0.05376636  0.23757961  0.55620114    -0.21700
C878        C  0.06589851  0.24539501  0.56120958     0.12800
S879        S  0.08603177  0.26547041  0.56160118    -0.05400
C880        C  0.08556425  0.25190942  0.57452638    -0.08800
C881        C  0.07430911  0.24200028  0.57306790    -0.25400
S882        S  0.03191918  0.23468060  0.53582075    -0.02600
C883        C  0.03166333  0.24870653  0.52335218    -0.16100
C884        C  0.04239238  0.25915805  0.52537213    -0.14100
H885        H  0.06697018  0.27316501  0.53650218     0.21300
H886        H  0.05014865  0.22773196  0.56161442     0.17300
H887        H  0.07247158  0.23282792  0.58026055     0.19900
H888        H  0.04394168  0.26862905  0.51849739     0.13200
C889        C  0.06078719  0.26186410  0.35547997     0.17100
C890        C  0.05166225  0.26532067  0.34377913    -0.32000
C891        C  0.04232162  0.27729973  0.34538506     0.21500
C892        C  0.04199053  0.28547732  0.35809188     0.03700
C893        C  0.05094531  0.28185178  0.36992573    -0.21700
C894        C  0.06033871  0.26986496  0.36830011     0.12800
S895        S  0.07378416  0.24857691  0.35511081    -0.05400
C896        C  0.07857229  0.25370920  0.37247503    -0.08800
C897        C  0.07045609  0.26510742  0.37819823    -0.25400
S898        S  0.03026685  0.29996407  0.35757177    -0.02600
C899        C  0.02574272  0.29483791  0.34008811    -0.16100
C900        C  0.03296822  0.28256267  0.33505762    -0.14100
H901        H  0.05207878  0.25915693  0.33372231     0.21300
H902        H  0.05081865  0.28826300  0.37983356     0.17300
H903        H  0.07243841  0.27021826  0.38863755     0.19900
H904        H  0.03155004  0.27781004  0.32435099     0.13200
C905        C  0.12885196  0.20177848  0.44434696     0.17100
C906        C  0.11713959  0.20511166  0.43507996    -0.32000
C907        C  0.11821456  0.21780027  0.42657888     0.21500
C908        C  0.13038998  0.22675089  0.42730972     0.03700
C909        C  0.14194594  0.22355574  0.43672874    -0.21700
C910        C  0.14090709  0.21087009  0.44514521     0.12800
S911        S  0.13000799  0.18664741  0.45517455    -0.05400
C912        C  0.14687680  0.19272294  0.46084181    -0.08800
C913        C  0.15124366  0.20576455  0.45459897    -0.25400
S914        S  0.13034765  0.24082113  0.41520181    -0.02600
C915        C  0.11371011  0.23468951  0.40911292    -0.16100
C916        C  0.10846221  0.22244045  0.41623280    -0.14100
H917        H  0.10776477  0.19797571  0.43429462     0.21300
H918        H  0.15151565  0.23046045  0.43719539     0.17300
H919        H  0.16148361  0.21121450  0.45682083     0.19900
H920        H  0.09857462  0.21668698  0.41332372     0.13200
C921        C  0.06122798  0.23924618  0.41962872     0.17100
C922        C  0.04907480  0.23442777  0.42756142    -0.32000
C923        C  0.04446359  0.24297348  0.43939427     0.21500
C924        C  0.05141025  0.25592830  0.44296139     0.03700
C925        C  0.06365535  0.26066728  0.43513557    -0.21700
C926        C  0.06847726  0.25195320  0.42352754     0.12800
S927        S  0.06853371  0.23045411  0.40489643    -0.05400
C928        C  0.08167325  0.24382183  0.40433848    -0.08800
C929        C  0.08035977  0.25455196  0.41484810    -0.25400
S930        S  0.04390196  0.26490998  0.45745801    -0.02600
C931        C  0.03155371  0.25084044  0.45903164    -0.16100
C932        C  0.03314493  0.23992024  0.44868237    -0.14100
H933        H  0.04352187  0.22440495  0.42470294     0.21300
H934        H  0.06924567  0.27065716  0.43803512     0.17300
H935        H  0.08762561  0.26379319  0.41592994     0.19900
H936        H  0.02633140  0.23029992  0.44796073     0.13200
C937        C  0.94482449  0.27207428  0.61942356     0.17100
C938        C  0.95348820  0.28460519  0.62083774    -0.32000
C939        C  0.95919913  0.28776242  0.63467280     0.21500
C940        C  0.95658298  0.27874144  0.64650903     0.03700
C941        C  0.94792858  0.26625305  0.64509990    -0.21700
C942        C  0.94208193  0.26321283  0.63133913     0.12800
S943        S  0.93609122  0.26676864  0.60383941    -0.05400
C944        C  0.92845153  0.25264928  0.61360115    -0.08800
C945        C  0.93275479  0.25206942  0.62805594    -0.25400
S946        S  0.96479998  0.28417949  0.66225933    -0.02600
C947        C  0.97177815  0.29886466  0.65286613    -0.16100
C948        C  0.96783041  0.29942541  0.63829216    -0.14100
H949        H  0.95552385  0.29168041  0.61162160     0.21300
H950        H  0.94571656  0.25929035  0.65436388     0.17300
H951        H  0.92872095  0.24426644  0.63593913     0.19900
H952        H  0.97144203  0.30767221  0.63066210     0.13200
C953        C  0.88553079  0.21090632  0.56161387     0.17100
C954        C  0.88288496  0.20103377  0.55020039    -0.32000
C955        C  0.86834596  0.19919220  0.54565058     0.21500
C956        C  0.85704417  0.20693961  0.55209001     0.03700
C957        C  0.85966799  0.21661675  0.56353016    -0.21700
C958        C  0.87409615  0.21836669  0.56811531     0.12800
S959        S  0.90223971  0.21463004  0.56910551    -0.05400
C960        C  0.89355736  0.22613783  0.58120940    -0.08800
C961        C  0.87861267  0.22704079  0.57929866    -0.25400
S962        S  0.84029396  0.20384854  0.54473821    -0.02600
C963        C  0.84845422  0.19183190  0.53288921    -0.16100
C964        C  0.86342123  0.19029022  0.53466701    -0.14100
H965        H  0.89172460  0.19506360  0.54512269     0.21300
H966        H  0.85082416  0.22256463  0.56863524     0.17300
H967        H  0.87134043  0.23350943  0.58599894     0.19900
H968        H  0.87033961  0.18341497  0.52800200     0.13200
C969        C  0.94402422  0.23617806  0.56586509     0.17100
C970        C  0.95607619  0.23222616  0.55732819    -0.32000
C971        C  0.95867106  0.24024875  0.54458423     0.21500
C972        C  0.94981908  0.25187313  0.54061812     0.03700
C973        C  0.93758074  0.25565126  0.54900585    -0.21700
C974        C  0.93485065  0.24747877  0.56164683     0.12800
S975        S  0.93923901  0.22796659  0.58186854    -0.05400
C976        C  0.92456601  0.23963954  0.58265853    -0.08800
C977        C  0.92350203  0.24941249  0.57121412    -0.25400
S978        S  0.95533431  0.26071752  0.52517080    -0.02600
C979        C  0.96944676  0.24835340  0.52384272    -0.16100
C980        C  0.96982581  0.23804429  0.53487495    -0.14100
H981        H  0.96316057  0.22331813  0.56051257     0.21300
H982        H  0.93054623  0.26461208  0.54586261     0.17300
H983        H  0.91498271  0.25752237  0.57008006     0.19900
H984        H  0.97802332  0.22958434  0.53589283     0.13200
C985        C  0.94475341  0.27772610  0.34686836     0.17100
C986        C  0.93390521  0.26732220  0.34956775    -0.32000
C987        C  0.92739206  0.26732020  0.36337413     0.21500
C988        C  0.93160218  0.27709535  0.37410112     0.03700
C989        C  0.94238157  0.28758018  0.37136616    -0.21700
C990        C  0.94876887  0.28771171  0.35748569     0.12800
S991        S  0.95398807  0.27948190  0.33083767    -0.05400
C992        C  0.96321996  0.29397628  0.33842465    -0.08800
C993        C  0.95929764  0.29715604  0.35265936    -0.25400
S994        S  0.92223410  0.27537496  0.39007599    -0.02600
C995        C  0.91239315  0.26147919  0.38214089    -0.16100
C996        C  0.91631348  0.25840645  0.36789435    -0.14100
H997        H  0.93061066  0.25963653  0.34123843     0.21300
H998        H  0.94556182  0.29536493  0.37964662     0.17300
H999        H  0.96400686  0.30580625  0.35917011     0.19900
H1000       H  0.91114108  0.25023299  0.36112441     0.13200
C1001       C  0.86250202  0.23058518  0.43694048     0.17100
C1002       C  0.85103138  0.22609571  0.44589804    -0.32000
C1003       C  0.85337635  0.21394060  0.45480914     0.21500
C1004       C  0.86660137  0.20658988  0.45498175     0.03700
C1005       C  0.87826012  0.21132136  0.44624285    -0.21700
C1006       C  0.87586117  0.22345902  0.43717390     0.12800
S1007       S  0.86108785  0.24397621  0.42417324    -0.05400
C1008       C  0.87870015  0.24005965  0.41902742    -0.08800
C1009       C  0.88533566  0.22903199  0.42700546    -0.25400
S1010       S  0.86680956  0.19158830  0.46612332    -0.02600
C1011       C  0.84893172  0.19542770  0.47058507    -0.16100
C1012       C  0.84328457  0.20767344  0.46377182    -0.14100
H1013       H  0.84054648  0.23154810  0.44557303     0.21300
H1014       H  0.88857096  0.20554438  0.44618100     0.17300
H1015       H  0.89606222  0.22461419  0.42477142     0.19900
H1016       H  0.83226340  0.21171205  0.46518249     0.13200
C1017       C  0.92656020  0.25849971  0.43285934     0.17100
C1018       C  0.93509333  0.26416334  0.44421454    -0.32000
C1019       C  0.94786750  0.25657093  0.44795883     0.21500
C1020       C  0.95187808  0.24385164  0.44079371     0.03700
C1021       C  0.94356002  0.23839895  0.42923253    -0.21700
C1022       C  0.93087687  0.24602427  0.42542770     0.12800
S1023       S  0.91042779  0.26577537  0.42693442    -0.05400
C1024       C  0.90979806  0.25202868  0.41418935    -0.08800
C1025       C  0.92135467  0.24235583  0.41455574    -0.25400
S1026       S  0.96714296  0.23565878  0.44755675    -0.02600
C1027       C  0.96834508  0.24964275  0.46001248    -0.16100
C1028       C  0.95744953  0.26009397  0.45889319    -0.14100
H1029       H  0.93183237  0.27394273  0.44998533     0.21300
H1030       H  0.94673320  0.22852413  0.42357353     0.17300
H1031       H  0.92263400  0.23314410  0.40728208     0.19900
H1032       H  0.95634151  0.26946606  0.46599517     0.13200
C1033       C  0.06586702  0.62251117  0.26886350     0.17100
C1034       C  0.05678125  0.63444449  0.27172789    -0.32000
C1035       C  0.04808976  0.63385573  0.28424358     0.21500
C1036       C  0.04820167  0.62181768  0.29339385     0.03700
C1037       C  0.05697603  0.60966787  0.29028731    -0.21700
C1038       C  0.06585511  0.61034850  0.27786629     0.12800
S1039       S  0.07867981  0.62208244  0.25543067    -0.05400
C1040       C  0.08400611  0.60531644  0.26193455    -0.08800
C1041       C  0.07612874  0.60028554  0.27376299    -0.25400
S1042       S  0.03757292  0.62371316  0.30855190    -0.02600
C1043       C  0.03300120  0.64091919  0.30247725    -0.16100
C1044       C  0.03930268  0.64479131  0.28933341    -0.14100
H1045       H  0.05695438  0.64404378  0.26485152     0.21300
H1046       H  0.05729674  0.60034791  0.29753023     0.17300
H1047       H  0.07854488  0.59035270  0.27968691     0.19900
H1048       H  0.03777349  0.65518598  0.28392780     0.13200
C1049       C  0.13699123  0.55155872  0.23523899     0.17100
C1050       C  0.14843472  0.54213869  0.23153207    -0.32000
C1051       C  0.14751189  0.53483761  0.21815875     0.21500
C1052       C  0.13567816  0.53670647  0.20893263     0.03700
C1053       C  0.12410778  0.54591947  0.21276306    -0.21700
C1054       C  0.12507036  0.55328913  0.22609415     0.12800
S1055       S  0.13677348  0.56255441  0.25022155    -0.05400
C1056       C  0.12040733  0.56944297  0.24413397    -0.08800
C1057       C  0.11541550  0.56343033  0.23124850    -0.25400
S1058       S  0.13685746  0.52723392  0.19298224    -0.02600
C1059       C  0.15344267  0.52062959  0.19884474    -0.16100
C1060       C  0.15773462  0.52558836  0.21243970    -0.14100
H1061       H  0.15782869  0.54086369  0.23857005     0.21300
H1062       H  0.11492128  0.54753295  0.20552425     0.17300
H1063       H  0.10578371  0.56700646  0.22544012     0.19900
H1064       H  0.16781168  0.52261028  0.21783844     0.13200
C1065       C  0.05767981  0.53384414  0.25737188     0.17100
C1066       C  0.06961678  0.54115062  0.26351494    -0.32000
C1067       C  0.07485140  0.55355733  0.25627963     0.21500
C1068       C  0.06843771  0.55854546  0.24352176     0.03700
C1069       C  0.05673366  0.55100519  0.23718018    -0.21700
C1070       C  0.05154056  0.53853688  0.24438429     0.12800
S1071       S  0.04912266  0.51919178  0.26500928    -0.05400
C1072       C  0.03726469  0.51920829  0.25044770    -0.08800
C1073       C  0.03994681  0.53001491  0.24022252    -0.25400
S1074       S  0.07591108  0.57426688  0.23683254    -0.02600
C1075       C  0.08796578  0.57382067  0.25117644    -0.16100
C1076       C  0.08622177  0.56222261  0.26064051    -0.14100
H1077       H  0.07445365  0.53747087  0.27362574     0.21300
H1078       H  0.05173997  0.55482572  0.22719947     0.17300
H1079       H  0.03342326  0.53187418  0.23056917     0.19900
H1080       H  0.09284402  0.56035802  0.27022140     0.13200
C1081       C  0.05864285  0.35362940  0.25700647     0.17100
C1082       C  0.04911540  0.34231136  0.26082688    -0.32000
C1083       C  0.04083052  0.34402778  0.27354853     0.21500
C1084       C  0.04180256  0.35654633  0.28197944     0.03700
C1085       C  0.05111837  0.36799130  0.27799431    -0.21700
C1086       C  0.05955310  0.36619097  0.26537479     0.12800
S1087       S  0.07065187  0.35302255  0.24282766    -0.05400
C1088       C  0.07694961  0.36990693  0.24816958    -0.08800
C1089       C  0.06996276  0.37562693  0.26028681    -0.25400
S1090       S  0.03127517  0.35625490  0.29731868    -0.02600
C1091       C  0.02555848  0.33904145  0.29236887    -0.16100
C1092       C  0.03147054  0.33397265  0.27941558    -0.14100
H1093       H  0.04851734  0.33241081  0.25441132     0.21300
H1094       H  0.05204532  0.37770429  0.28465058     0.17300
H1095       H  0.07290592  0.38569831  0.26565907     0.19900
H1096       H  0.02914380  0.32343450  0.27460776     0.13200
C1097       C  0.14704699  0.43869945  0.21108300     0.17100
C1098       C  0.14497923  0.42676025  0.22035180    -0.32000
C1099       C  0.13088384  0.42098914  0.22143957     0.21500
C1100       C  0.11923767  0.42701013  0.21390332     0.03700
C1101       C  0.12131640  0.43896155  0.20455281    -0.21700
C1102       C  0.13552998  0.44454080  0.20320051     0.12800
S1103       S  0.16339385  0.44705221  0.20819582    -0.05400
C1104       C  0.15478103  0.45836031  0.19593719    -0.08800
C1105       C  0.13994008  0.45579698  0.19435252    -0.25400
S1106       S  0.10306462  0.41808742  0.21653705    -0.02600
C1107       C  0.11221923  0.40595431  0.22762422    -0.16100
C1108       C  0.12694496  0.40889148  0.22923239    -0.14100
H1109       H  0.15402621  0.42201643  0.22628146     0.21300
H1110       H  0.11232202  0.44352929  0.19841377     0.17300
H1111       H  0.13276807  0.46192522  0.18724871     0.19900
H1112       H  0.13446374  0.40225695  0.23547939     0.13200
C1113       C  0.06780599  0.42251794  0.25017759     0.17100
C1114       C  0.06105783  0.43441528  0.25705111    -0.32000
C1115       C  0.04876144  0.44051807  0.25027386     0.21500
C1116       C  0.04351134  0.43507738  0.23718591     0.03700
C1117       C  0.04999258  0.42294679  0.23053749    -0.21700
C1118       C  0.06219305  0.41678846  0.23735268     0.12800
S1119       S  0.08329890  0.41406009  0.25618658    -0.05400
C1120       C  0.08183062  0.40250776  0.24149775    -0.08800
C1121       C  0.07011968  0.40513061  0.23241159    -0.25400
S1122       S  0.02921768  0.44462433  0.23010101    -0.02600
C1123       C  0.03008524  0.45590801  0.24506072    -0.16100
C1124       C  0.04091075  0.45237434  0.25499524    -0.14100
H1125       H  0.06534789  0.43887237  0.26709375     0.21300
H1126       H  0.04585761  0.41865218  0.22035892     0.17300
H1127       H  0.06773729  0.39898281  0.22263091     0.19900
H1128       H  0.04320188  0.45843329  0.26485721     0.13200
C1129       C  0.94153384  0.61211552  0.28250408     0.17100
C1130       C  0.95204060  0.61422984  0.29338696    -0.32000
C1131       C  0.95821745  0.62817584  0.29460977     0.21500
C1132       C  0.95435495  0.63938426  0.28520923     0.03700
C1133       C  0.94392221  0.63725726  0.27433521    -0.21700
C1134       C  0.93753650  0.62344878  0.27332129     0.12800
S1135       S  0.93188522  0.59640754  0.27989594    -0.05400
C1136       C  0.92219196  0.60538717  0.26654402    -0.08800
C1137       C  0.92646587  0.61964796  0.26415423    -0.25400
S1138       S  0.96316274  0.65542866  0.28824731    -0.02600
C1139       C  0.97202930  0.64706041  0.30249002    -0.16100
C1140       C  0.96832517  0.63256583  0.30467727    -0.14100
H1141       H  0.95502411  0.60550653  0.30076299     0.21300
H1142       H  0.94070878  0.64606995  0.26716039     0.17300
H1143       H  0.92130078  0.62703742  0.25652416     0.19900
H1144       H  0.97299175  0.62556757  0.31296211     0.13200
C1145       C  0.87638633  0.55390361  0.22898417     0.17100
C1146       C  0.87268712  0.54473543  0.21736241    -0.32000
C1147       C  0.85841601  0.53927148  0.21694750     0.21500
C1148       C  0.84840954  0.54237246  0.22784918     0.03700
C1149       C  0.85215053  0.55140997  0.23954141    -0.21700
C1150       C  0.86625481  0.55726302  0.23969781     0.12800
S1151       S  0.89260533  0.56288485  0.23066205    -0.05400
C1152       C  0.88545368  0.57153073  0.24568839    -0.08800
C1153       C  0.87140591  0.56740552  0.24929909    -0.25400
S1154       S  0.83157956  0.53490316  0.22521287    -0.02600
C1155       C  0.83797797  0.52785756  0.20904389    -0.16100
C1156       C  0.85247487  0.53095553  0.20609990    -0.14100
H1157       H  0.88041032  0.54240664  0.20874645     0.21300
H1158       H  0.84425358  0.55418229  0.24786626     0.17300
H1159       H  0.86505426  0.57215011  0.25804999     0.19900
H1160       H  0.85834734  0.52732882  0.19652537     0.13200
C1161       C  0.93218036  0.55303127  0.26009613     0.17100
C1162       C  0.93938142  0.54018386  0.26426438    -0.32000
C1163       C  0.95290231  0.53716025  0.25776156     0.21500
C1164       C  0.95887344  0.54638693  0.24738014     0.03700
C1165       C  0.95182231  0.55937338  0.24342692    -0.21700
C1166       C  0.93841289  0.56250004  0.25007954     0.12800
S1167       S  0.91558165  0.55855538  0.26655475    -0.05400
C1168       C  0.91730121  0.57390302  0.25591248    -0.08800
C1169       C  0.92995629  0.57461282  0.24773854    -0.25400
S1170       S  0.97483126  0.54025847  0.23998522    -0.02600
C1171       C  0.97364914  0.52532066  0.25128245    -0.16100
C1172       C  0.96148390  0.52513713  0.26022656    -0.14100
H1173       H  0.93461748  0.53282834  0.27216309     0.21300
H1174       H  0.95652147  0.56665958  0.23542546     0.17300
H1175       H  0.93275376  0.58350779  0.24050777     0.19900
H1176       H  0.95879740  0.51640288  0.26769823     0.13200
C1177       C  0.94657712  0.34604305  0.27447109     0.17100
C1178       C  0.93572294  0.34851138  0.26405711    -0.32000
C1179       C  0.93008890  0.36267950  0.26296086     0.21500
C1180       C  0.93522176  0.37398270  0.27159124     0.03700
C1181       C  0.94609786  0.37152179  0.28199221    -0.21700
C1182       C  0.95149448  0.35727769  0.28332395     0.12800
S1183       S  0.95452944  0.32954341  0.27779162    -0.05400
C1184       C  0.96432317  0.33783048  0.29146885    -0.08800
C1185       C  0.96163190  0.35259980  0.29317685    -0.25400
S1186       S  0.92645098  0.39020525  0.26905210    -0.02600
C1187       C  0.91557577  0.38157774  0.25643809    -0.16100
C1188       C  0.91879232  0.36697606  0.25427218    -0.14100
H1189       H  0.93161567  0.33971334  0.25734026     0.21300
H1190       H  0.94991866  0.38023306  0.28898464     0.17300
H1191       H  0.96687756  0.35955127  0.30114579     0.19900
H1192       H  0.91276374  0.35974977  0.24714335     0.13200
C1193       C  0.87183690  0.43753686  0.22228137     0.17100
C1194       C  0.86920785  0.44883939  0.21236371    -0.32000
C1195       C  0.85499258  0.45445245  0.21164117     0.21500
C1196       C  0.84396732  0.44929887  0.22060928     0.03700
C1197       C  0.84662090  0.43806449  0.23056739    -0.21700
C1198       C  0.86074427  0.43225366  0.23106665     0.12800
S1199       S  0.88802910  0.42852497  0.22413405    -0.05400
C1200       C  0.87967339  0.41734053  0.23668144    -0.08800
C1201       C  0.86517967  0.42071157  0.23935192    -0.25400
S1202       S  0.82747782  0.45755231  0.21809785    -0.02600
C1203       C  0.83545574  0.46787091  0.20462548    -0.16100
C1204       C  0.85014446  0.46508535  0.20237689    -0.14100
H1205       H  0.87776649  0.45284875  0.20529833     0.21300
H1206       H  0.83798791  0.43383467  0.23741267     0.17300
H1207       H  0.85810484  0.41472578  0.24665769     0.19900
H1208       H  0.85693578  0.47064348  0.19448773     0.13200
C1209       C  0.93251714  0.42759508  0.23758978     0.17100
C1210       C  0.94444419  0.43515496  0.23165335    -0.32000
C1211       C  0.95110540  0.44590346  0.24030531     0.21500
C1212       C  0.94616172  0.44886588  0.25427344     0.03700
C1213       C  0.93405659  0.44157538  0.26006130    -0.21700
C1214       C  0.92733198  0.43095559  0.25139185     0.12800
S1215       S  0.92339044  0.41363734  0.22922165    -0.05400
C1216       C  0.91230717  0.41270945  0.24432970    -0.08800
C1217       C  0.91558564  0.42255850  0.25524471    -0.25400
S1218       S  0.95620028  0.46154056  0.26342982    -0.02600
C1219       C  0.96707605  0.46314407  0.24822420    -0.16100
C1220       C  0.96302754  0.45425131  0.23667206    -0.14100
H1221       H  0.94848435  0.43262042  0.22086726     0.21300
H1222       H  0.93017315  0.44393593  0.27094494     0.17300
H1223       H  0.90988097  0.42325721  0.26554153     0.19900
H1224       H  0.96872779  0.45364044  0.22636367     0.13200
C1225       C  0.70203677  0.62751142  0.04437355     0.17100
C1226       C  0.70596192  0.61626388  0.05396542    -0.32000
C1227       C  0.71732555  0.61900637  0.06382325     0.21500
C1228       C  0.72450120  0.63231586  0.06405518     0.03700
C1229       C  0.72077183  0.64344741  0.05428274    -0.21700
C1230       C  0.70935832  0.64074885  0.04449920     0.12800
S1231       S  0.68796943  0.62670808  0.03222411    -0.05400
C1232       C  0.69201779  0.64438674  0.02724204    -0.08800
C1233       C  0.70374659  0.65043423  0.03459410    -0.25400
S1234       S  0.73716075  0.63393584  0.07755039    -0.02600
C1235       C  0.73288422  0.61644108  0.08289807    -0.16100
C1236       C  0.72216566  0.60979662  0.07456192    -0.14100
H1237       H  0.70017338  0.60596668  0.05399140     0.21300
H1238       H  0.72626638  0.65390108  0.05455790     0.17300
H1239       H  0.70773774  0.66144169  0.03301721     0.19900
H1240       H  0.71754781  0.59916539  0.07669498     0.13200
C1241       C  0.77176112  0.56332945  0.12640467     0.17100
C1242       C  0.78262721  0.55279964  0.12884583    -0.32000
C1243       C  0.78399912  0.54715056  0.14300281     0.21500
C1244       C  0.77483347  0.55162813  0.15416123     0.03700
C1245       C  0.76407649  0.56221065  0.15174924    -0.21700
C1246       C  0.76283680  0.56798310  0.13767611     0.12800
S1247       S  0.76860501  0.57198234  0.11019329    -0.05400
C1248       C  0.75532435  0.58214820  0.11881271    -0.08800
C1249       C  0.75346344  0.57879339  0.13340384    -0.25400
S1250       S  0.77786504  0.54315203  0.17042180    -0.02600
C1251       C  0.79178784  0.53357466  0.16220441    -0.16100
C1252       C  0.79387376  0.53686822  0.14760101    -0.14100
H1253       H  0.78976336  0.54925670  0.12013835     0.21300
H1254       H  0.75703104  0.56585665  0.16049011     0.17300
H1255       H  0.74591380  0.58430751  0.14062413     0.19900
H1256       H  0.80192706  0.53174569  0.14064343     0.13200
C1257       C  0.75176073  0.55552222  0.04731956     0.17100
C1258       C  0.75723200  0.56745855  0.05513759    -0.32000
C1259       C  0.74933515  0.57214541  0.06734979     0.21500
C1260       C  0.73661969  0.56517206  0.07168877     0.03700
C1261       C  0.73092671  0.55351164  0.06361424    -0.21700
C1262       C  0.73875758  0.54891018  0.05131929     0.12800
S1263       S  0.76022780  0.54756668  0.03278331    -0.05400
C1264       C  0.74594119  0.53541446  0.03189312    -0.08800
C1265       C  0.73521737  0.53751285  0.04231644    -0.25400
S1266       S  0.72904394  0.57201915  0.08725607    -0.02600
C1267       C  0.74289207  0.58465660  0.08756694    -0.16100
C1268       C  0.75289633  0.58351277  0.07636374    -0.14100
H1269       H  0.76731261  0.57272272  0.05196905     0.21300
H1270       H  0.72094183  0.54813058  0.06688672     0.17300
H1271       H  0.72563778  0.53072124  0.04356212     0.19900
H1272       H  0.76222217  0.59060912  0.07495463     0.13200
C1273       C  0.71000839  0.38238283  0.06623284     0.17100
C1274       C  0.69984506  0.37939870  0.05524330    -0.32000
C1275       C  0.70026668  0.36553019  0.04879407     0.21500
C1276       C  0.71051071  0.35516300  0.05288178     0.03700
C1277       C  0.72062574  0.35811482  0.06392707    -0.21700
C1278       C  0.72002178  0.37188655  0.07056710     0.12800
S1279       S  0.71076903  0.39825450  0.07596817    -0.05400
C1280       C  0.72448083  0.39051649  0.08616831    -0.08800
C1281       C  0.72828964  0.37647495  0.08209112    -0.25400
S1282       S  0.70929608  0.33905825  0.04358917    -0.02600
C1283       C  0.69466123  0.34629272  0.03428021    -0.16100
C1284       C  0.69107724  0.36046324  0.03819704    -0.14100
H1285       H  0.69180293  0.38744141  0.05203196     0.21300
H1286       H  0.72846071  0.34995914  0.06735826     0.17300
H1287       H  0.73630907  0.36980369  0.08764060     0.19900
H1288       H  0.68227808  0.36676850  0.03345866     0.13200
C1289       C  0.75342499  0.44282385  0.13948558     0.17100
C1290       C  0.75682220  0.45228002  0.15096260    -0.32000
C1291       C  0.77074473  0.45855751  0.15106772     0.21500
C1292       C  0.78082536  0.45566822  0.14017828     0.03700
C1293       C  0.77737434  0.44631461  0.12860689    -0.21700
C1294       C  0.76345388  0.43998274  0.12853095     0.12800
S1295       S  0.73761247  0.43315045  0.13811656    -0.05400
C1296       C  0.74453434  0.42526752  0.12257392    -0.08800
C1297       C  0.75833154  0.42999674  0.11868330    -0.25400
S1298       S  0.79719152  0.46424913  0.14243021    -0.02600
C1299       C  0.79035308  0.47179447  0.15821065    -0.16100
C1300       C  0.77615726  0.46777966  0.16145907    -0.14100
H1301       H  0.74906256  0.45440921  0.15960034     0.21300
H1302       H  0.78526374  0.44390021  0.12016403     0.17300
H1303       H  0.76465704  0.42564660  0.10972724     0.19900
H1304       H  0.77008691  0.47147346  0.17088605     0.13200
C1305       C  0.74700818  0.43547379  0.07037876     0.17100
C1306       C  0.75411951  0.44264148  0.05888228    -0.32000
C1307       C  0.74687166  0.45442158  0.05227359     0.21500
C1308       C  0.73312718  0.45878509  0.05687271     0.03700
C1309       C  0.72615807  0.45183125  0.06853283    -0.21700
C1310       C  0.73341647  0.44013229  0.07517376     0.12800
S1311       S  0.75365587  0.42058737  0.07946773    -0.05400
C1312       C  0.73810061  0.42094421  0.08994283    -0.08800
C1313       C  0.72830135  0.43188935  0.08652195    -0.25400
S1314       S  0.72575257  0.47269612  0.04698489    -0.02600
C1315       C  0.74140835  0.47283895  0.03661257    -0.16100
C1316       C  0.75179077  0.46260787  0.04073275    -0.14100
H1317       H  0.76473985  0.43907616  0.05513467     0.21300
H1318       H  0.71544831  0.45527003  0.07214750     0.17300
H1319       H  0.71794214  0.43355324  0.09193662     0.19900
H1320       H  0.76217567  0.46100053  0.03534464     0.13200
C1321       C  0.70067917  0.62423862  0.94959914     0.17100
C1322       C  0.70485803  0.61232784  0.94095570    -0.32000
C1323       C  0.71706498  0.61407506  0.93190647     0.21500
C1324       C  0.72478226  0.62707922  0.93151169     0.03700
C1325       C  0.72076701  0.63887977  0.94033260    -0.21700
C1326       C  0.70853297  0.63715976  0.94930840     0.12800
S1327       S  0.68587505  0.62457078  0.96090237    -0.05400
C1328       C  0.69037738  0.64228480  0.96531674    -0.08800
C1329       C  0.70271803  0.64752238  0.95834319    -0.25400
S1330       S  0.73841405  0.62751397  0.91889803    -0.02600
C1331       C  0.73376860  0.60994871  0.91415393    -0.16100
C1332       C  0.72228886  0.60412015  0.92205371    -0.14100
H1333       H  0.69868623  0.60225784  0.94104530     0.21300
H1334       H  0.72669961  0.64908744  0.93994533     0.17300
H1335       H  0.70718218  0.65836848  0.95977317     0.19900
H1336       H  0.71739874  0.59356733  0.92005757     0.13200
C1337       C  0.76832738  0.55300611  0.87197022     0.17100
C1338       C  0.77883315  0.54213130  0.86956188    -0.32000
C1339       C  0.78034789  0.53677052  0.85532208     0.21500
C1340       C  0.77146202  0.54163848  0.84409876     0.03700
C1341       C  0.76089849  0.55239683  0.84653159    -0.21700
C1342       C  0.75971571  0.55808345  0.86063945     0.12800
S1343       S  0.76576936  0.56202494  0.88806672    -0.05400
C1344       C  0.75328401  0.57301244  0.87928793    -0.08800
C1345       C  0.75107417  0.56951781  0.86477791    -0.25400
S1346       S  0.77508242  0.53395070  0.82757843    -0.02600
C1347       C  0.78900768  0.52437234  0.83576266    -0.16100
C1348       C  0.79052557  0.52688691  0.85057120    -0.14100
H1349       H  0.78586339  0.53839775  0.87827463     0.21300
H1350       H  0.75422632  0.55650641  0.83770475     0.17300
H1351       H  0.74399846  0.57549594  0.85745046     0.19900
H1352       H  0.79863219  0.52176619  0.85746616     0.13200
C1353       C  0.73814527  0.55855306  0.92755125     0.17100
C1354       C  0.73309211  0.54685406  0.93595750    -0.32000
C1355       C  0.74105918  0.54314026  0.94845041     0.21500
C1356       C  0.75364861  0.55057095  0.95232182     0.03700
C1357       C  0.75854853  0.56248469  0.94407778    -0.21700
C1358       C  0.75044768  0.56634431  0.93168780     0.12800
S1359       S  0.73015825  0.56452518  0.91183383    -0.05400
C1360       C  0.74329263  0.57786999  0.91110167    -0.08800
C1361       C  0.75335659  0.57762433  0.92232797    -0.25400
S1362       S  0.76206220  0.54390211  0.96755966    -0.02600
C1363       C  0.74824422  0.53124644  0.96889989    -0.16100
C1364       C  0.73780081  0.53217571  0.95803648    -0.14100
H1365       H  0.72338980  0.54087589  0.93287300     0.21300
H1366       H  0.76825859  0.56845189  0.94715680     0.17300
H1367       H  0.76232990  0.58520976  0.92345480     0.19900
H1368       H  0.72839678  0.52508933  0.95712953     0.13200
C1369       C  0.73338775  0.36638467  0.94245207     0.17100
C1370       C  0.72966688  0.35457072  0.95141850    -0.32000
C1371       C  0.71614978  0.35507202  0.95856814     0.21500
C1372       C  0.70680762  0.36687545  0.95697626     0.03700
C1373       C  0.71060574  0.37876836  0.94813340    -0.21700
C1374       C  0.72408605  0.37822693  0.94089864     0.12800
S1375       S  0.74855579  0.36713410  0.93171442    -0.05400
C1376       C  0.74238342  0.38361366  0.92508432    -0.08800
C1377       C  0.72925092  0.38821432  0.93101438    -0.25400
S1378       S  0.69078585  0.36525820  0.96634147    -0.02600
C1379       C  0.69670747  0.34848668  0.97248427    -0.16100
C1380       C  0.71042213  0.34448585  0.96745370    -0.14100
H1381       H  0.73683187  0.34522495  0.95247977     0.21300
H1382       H  0.70323967  0.38790641  0.94671460     0.17300
H1383       H  0.72321460  0.39771339  0.92744933     0.19900
H1384       H  0.71593322  0.33438962  0.97018578     0.13200
C1385       C  0.77772516  0.43687236  0.87759154     0.17100
C1386       C  0.78809341  0.44736032  0.87344203    -0.32000
C1387       C  0.78819790  0.45187632  0.85880227     0.21500
C1388       C  0.77825890  0.44641493  0.84881802     0.03700
C1389       C  0.76790960  0.43598396  0.85296854    -0.21700
C1390       C  0.76797090  0.43130084  0.86750571     0.12800
S1391       S  0.77638620  0.42909124  0.89451324    -0.05400
C1392       C  0.76273867  0.41802580  0.88780996    -0.08800
C1393       C  0.75938232  0.42057056  0.87329524    -0.25400
S1394       S  0.77998709  0.45339784  0.83165420    -0.02600
C1395       C  0.79441581  0.46368039  0.83787864    -0.16100
C1396       C  0.79757382  0.46173079  0.85255195    -0.14100
H1397       H  0.79590777  0.45159939  0.88119988     0.21300
H1398       H  0.76028670  0.43152393  0.84514180     0.17300
H1399       H  0.75147230  0.41438210  0.86708841     0.19900
H1400       H  0.80609248  0.46743868  0.85839985     0.13200
C1401       C  0.75856531  0.43172567  0.93985585     0.17100
C1402       C  0.76392296  0.44068462  0.95103191    -0.32000
C1403       C  0.75414378  0.45046570  0.95762741     0.21500
C1404       C  0.73963402  0.45117113  0.95341399     0.03700
C1405       C  0.73430001  0.44229459  0.94217581    -0.21700
C1406       C  0.74411370  0.43266357  0.93544567     0.12800
S1407       S  0.76860549  0.41899578  0.93061698    -0.05400
C1408       C  0.75325933  0.41523886  0.92050062    -0.08800
C1409       C  0.74102829  0.42326210  0.92424026    -0.25400
S1410       S  0.72950411  0.46367568  0.96281550    -0.02600
C1411       C  0.74502301  0.46821349  0.97238491    -0.16100
C1412       C  0.75731942  0.46026497  0.96847919    -0.14100
H1413       H  0.77522365  0.44008486  0.95441137     0.21300
H1414       H  0.72300527  0.44291510  0.93878053     0.17300
H1415       H  0.73046298  0.42217600  0.91909671     0.19900
H1416       H  0.76802981  0.46164891  0.97325485     0.13200
C1417       C  0.04356266  0.63749326  0.71093137     0.17100
C1418       C  0.05408495  0.62674774  0.71380468    -0.32000
C1419       C  0.06092191  0.62701401  0.72747562     0.21500
C1420       C  0.05740565  0.63748092  0.73782281     0.03700
C1421       C  0.04676685  0.64807399  0.73502202    -0.21700
C1422       C  0.04002512  0.64787389  0.72134441     0.12800
S1423       S  0.03439467  0.63945725  0.69484984    -0.05400
C1424       C  0.02578096  0.65445500  0.70225680    -0.08800
C1425       C  0.02983747  0.65761811  0.71643893    -0.25400
S1426       S  0.06778418  0.63683048  0.75320849    -0.02600
C1427       C  0.07687356  0.62224242  0.74570142    -0.16100
C1428       C  0.07204333  0.61810100  0.73202753    -0.14100
H1429       H  0.05703829  0.61874054  0.70564171     0.21300
H1430       H  0.04413896  0.65636217  0.74301649     0.17300
H1431       H  0.02563115  0.66664593  0.72280104     0.19900
H1432       H  0.07700544  0.60965061  0.72543018     0.13200
C1433       C  0.13284946  0.57228349  0.77414622     0.17100
C1434       C  0.14510324  0.56379052  0.77743316    -0.32000
C1435       C  0.14377048  0.55347247  0.78858875     0.21500
C1436       C  0.13081575  0.55163449  0.79616175     0.03700
C1437       C  0.11847155  0.56002812  0.79274377    -0.21700
C1438       C  0.11980871  0.57037763  0.78155612     0.12800
S1439       S  0.13263981  0.58605218  0.76170250    -0.05400
C1440       C  0.11473325  0.58923724  0.76637254    -0.08800
C1441       C  0.10929985  0.58004017  0.77705043    -0.25400
S1442       S  0.13161221  0.53866830  0.80951503    -0.02600
C1443       C  0.14954464  0.53564485  0.80471187    -0.16100
C1444       C  0.15452280  0.54431216  0.79340538    -0.14100
H1445       H  0.15531106  0.56532118  0.77169788     0.21300
H1446       H  0.10834220  0.55868498  0.79865847     0.17300
H1447       H  0.09859090  0.58090855  0.78189476     0.19900
H1448       H  0.16543227  0.54388857  0.78889265     0.13200
C1449       C  0.06301878  0.57432236  0.75918231     0.17100
C1450       C  0.05122508  0.56560127  0.76344676    -0.32000
C1451       C  0.04578901  0.55552939  0.75331833     0.21500
C1452       C  0.05175981  0.55422628  0.73950593     0.03700
C1453       C  0.06373528  0.56278173  0.73531097    -0.21700
C1454       C  0.06923759  0.57280631  0.74548282     0.12800
S1455       S  0.07066734  0.58767281  0.76966109    -0.05400
C1456       C  0.08262402  0.59091043  0.75561395    -0.08800
C1457       C  0.08061679  0.58229801  0.74339930    -0.25400
S1458       S  0.04324948  0.54164554  0.72869946    -0.02600
C1459       C  0.03167678  0.53794933  0.74303118    -0.16100
C1460       C  0.03435105  0.54614531  0.75544148    -0.14100
H1461       H  0.04639377  0.56672507  0.77414750     0.21300
H1462       H  0.06847148  0.56175978  0.72455869     0.17300
H1463       H  0.08692039  0.58320120  0.73347484     0.19900
H1464       H  0.02822397  0.54530160  0.76548718     0.13200
C1465       C  0.06664253  0.37352550  0.72119806     0.17100
C1466       C  0.05695732  0.36184826  0.71947086    -0.32000
C1467       C  0.04939497  0.36080298  0.70625443     0.21500
C1468       C  0.05125632  0.37099315  0.69525487     0.03700
C1469       C  0.06088732  0.38276144  0.69702082    -0.21700
C1470       C  0.06853531  0.38376351  0.71023417     0.12800
S1471       S  0.07760985  0.37602389  0.73598911    -0.05400
C1472       C  0.08474952  0.39107433  0.72739758    -0.08800
C1473       C  0.07891655  0.39394729  0.71378203    -0.25400
S1474       S  0.04107702  0.36764521  0.68001018    -0.02600
C1475       C  0.03431156  0.35232377  0.68855696    -0.16100
C1476       C  0.03972809  0.35007314  0.70247197    -0.14100
H1477       H  0.05557638  0.35376920  0.72796248     0.21300
H1478       H  0.06249844  0.39066511  0.68840924     0.17300
H1479       H  0.08262569  0.40252342  0.70657665     0.19900
H1480       H  0.03667247  0.34110093  0.70951082     0.13200
C1481       C  0.13428833  0.44592210  0.75859079     0.17100
C1482       C  0.14543511  0.45559398  0.76255655    -0.32000
C1483       C  0.14456993  0.46212719  0.77633752     0.21500
C1484       C  0.13297698  0.45938661  0.78564205     0.03700
C1485       C  0.12164605  0.44999981  0.78152848    -0.21700
C1486       C  0.12263900  0.44326865  0.76785250     0.12800
S1487       S  0.13433243  0.43546750  0.74321414    -0.05400
C1488       C  0.11846402  0.42750048  0.74929052    -0.08800
C1489       C  0.11343425  0.43279266  0.76249211    -0.25400
S1490       S  0.13433507  0.46773812  0.80219194    -0.02600
C1491       C  0.15075579  0.47493073  0.79657346    -0.16100
C1492       C  0.15477482  0.47112574  0.78251854    -0.14100
H1493       H  0.15467412  0.45748419  0.75545905     0.21300
H1494       H  0.11272009  0.44763584  0.78887836     0.17300
H1495       H  0.10421746  0.42842570  0.76840285     0.19900
H1496       H  0.16472900  0.47457686  0.77719048     0.13200
C1497       C  0.07086571  0.44205906  0.73186425     0.17100
C1498       C  0.06212605  0.45316039  0.72603680    -0.32000
C1499       C  0.05214937  0.46001914  0.73536530     0.21500
C1500       C  0.05102096  0.45613229  0.74991438     0.03700
C1501       C  0.05973924  0.44498032  0.75575479    -0.21700
C1502       C  0.06961569  0.43799902  0.74637157     0.12800
S1503       S  0.08364762  0.43250212  0.72228382    -0.05400
C1504       C  0.08722674  0.42287906  0.73793035    -0.08800
C1505       C  0.07897516  0.42685698  0.74991418    -0.25400
S1506       S  0.03821024  0.46580020  0.75938668    -0.02600
C1507       C  0.03415912  0.47498695  0.74350881    -0.16100
C1508       C  0.04248551  0.47080510  0.73161631    -0.14100
H1509       H  0.06301428  0.45626797  0.71469833     0.21300
H1510       H  0.05881523  0.44184028  0.76708126     0.17300
H1511       H  0.07983906  0.42191938  0.76058180     0.19900
H1512       H  0.04144085  0.47532872  0.72077364     0.13200
C1513       C  0.93186907  0.61981883  0.71573531     0.17100
C1514       C  0.94326209  0.62274632  0.70598476    -0.32000
C1515       C  0.94919134  0.63685860  0.70603845     0.21500
C1516       C  0.94424502  0.64748832  0.71559893     0.03700
C1517       C  0.93283254  0.64458039  0.72530661    -0.21700
C1518       C  0.92668868  0.63058166  0.72501788     0.12800
S1519       S  0.92264309  0.60365624  0.71682458    -0.05400
C1520       C  0.91148855  0.61163414  0.72964862    -0.08800
C1521       C  0.91493881  0.62596548  0.73295561    -0.25400
S1522       S  0.95299186  0.66385250  0.71410684    -0.02600
C1523       C  0.96322739  0.65640137  0.70023421    -0.16100
C1524       C  0.96002015  0.64195273  0.69710179    -0.14100
H1525       H  0.94714868  0.61447666  0.69850331     0.21300
H1526       H  0.92874874  0.65293791  0.73258579     0.17300
H1527       H  0.90886536  0.63277255  0.74046042     0.19900
H1528       H  0.96542736  0.63548376  0.68883388     0.13200
C1529       C  0.86900580  0.55773078  0.76796231     0.17100
C1530       C  0.86681099  0.54763490  0.77922105    -0.32000
C1531       C  0.85287575  0.54144842  0.78059367     0.21500
C1532       C  0.84168190  0.54497889  0.77106420     0.03700
C1533       C  0.84386106  0.55511807  0.75986098    -0.21700
C1534       C  0.85773044  0.56143775  0.75861184     0.12800
S1535       S  0.88488870  0.56695621  0.76482268    -0.05400
C1536       C  0.87617126  0.57610727  0.75091793    -0.08800
C1537       C  0.86176754  0.57196546  0.74884771    -0.25400
S1538       S  0.82569210  0.53600031  0.77432198    -0.02600
C1539       C  0.83410118  0.52752719  0.78881322    -0.16100
C1540       C  0.84854972  0.53152519  0.79088704    -0.14100
H1541       H  0.87552918  0.54484221  0.78667404     0.21300
H1542       H  0.83509597  0.55804668  0.75251423     0.17300
H1543       H  0.85448219  0.57673598  0.74087517     0.19900
H1544       H  0.85559907  0.52717492  0.79929829     0.13200
C1545       C  0.93014768  0.56783723  0.74874206     0.17100
C1546       C  0.94304886  0.56177725  0.75431368    -0.32000
C1547       C  0.94973781  0.55058993  0.74627689     0.21500
C1548       C  0.94389016  0.54570797  0.73322761     0.03700
C1549       C  0.93078320  0.55148240  0.72785718    -0.21700
C1550       C  0.92405721  0.56261029  0.73592359     0.12800
S1551       S  0.92093387  0.58219066  0.75630915    -0.05400
C1552       C  0.90861318  0.58081261  0.74225365    -0.08800
C1553       C  0.91154427  0.56993290  0.73223356    -0.25400
S1554       S  0.95408623  0.53265172  0.72469341    -0.02600
C1555       C  0.96621667  0.53356219  0.73898869    -0.16100
C1556       C  0.96245607  0.54348502  0.74975680    -0.14100
H1557       H  0.94780754  0.56578810  0.76433267     0.21300
H1558       H  0.92616402  0.54764740  0.71770463     0.17300
H1559       H  0.90513371  0.56787811  0.72255086     0.19900
H1560       H  0.96879141  0.54551597  0.75949896     0.13200
C1561       C  0.94220398  0.36796864  0.72991347     0.17100
C1562       C  0.95076264  0.35591605  0.72600802    -0.32000
C1563       C  0.95874213  0.35682018  0.71302574     0.21500
C1564       C  0.95835809  0.36922036  0.70438039     0.03700
C1565       C  0.95006666  0.38141267  0.70847137    -0.21700
C1566       C  0.94197228  0.38046446  0.72139361     0.12800
S1567       S  0.93032100  0.36826942  0.74418317    -0.05400
C1568       C  0.92495841  0.38540413  0.73862083    -0.08800
C1569       C  0.93224992  0.39062757  0.72649033    -0.25400
S1570       S  0.96831792  0.36788749  0.68872253    -0.02600
C1571       C  0.97314838  0.35048227  0.69394554    -0.16100
C1572       C  0.96727714  0.34605891  0.70713592    -0.14100
H1573       H  0.95080649  0.34607611  0.73253930     0.21300
H1574       H  0.94959012  0.39104262  0.70165402     0.17300
H1575       H  0.92968068  0.40073559  0.72095285     0.19900
H1576       H  0.96911669  0.33550720  0.71212751     0.13200
C1577       C  0.87853476  0.44130048  0.76937475     0.17100
C1578       C  0.87503549  0.45202321  0.77970434    -0.32000
C1579       C  0.86034194  0.45618075  0.78093912     0.21500
C1580       C  0.84970160  0.45032632  0.77193709     0.03700
C1581       C  0.85322901  0.43977957  0.76149034    -0.21700
C1582       C  0.86780881  0.43526973  0.76060792     0.12800
S1583       S  0.89533636  0.43343005  0.76739428    -0.05400
C1584       C  0.88768786  0.42159235  0.75497967    -0.08800
C1585       C  0.87301043  0.42404047  0.75229695    -0.25400
S1586       S  0.83248421  0.45654094  0.77530150    -0.02600
C1587       C  0.83959896  0.46687048  0.78925950    -0.16100
C1588       C  0.85458846  0.46567308  0.79095868    -0.14100
H1589       H  0.88328646  0.45647703  0.78686882     0.21300
H1590       H  0.84487615  0.43488524  0.75473806     0.17300
H1591       H  0.86628202  0.41735383  0.74526903     0.19900
H1592       H  0.86092323  0.47143880  0.79907574     0.13200
C1593       C  0.94012008  0.43364465  0.75175504     0.17100
C1594       C  0.95197543  0.44185946  0.75677790    -0.32000
C1595       C  0.95703743  0.45321065  0.74789346     0.21500
C1596       C  0.95073157  0.45615099  0.73448264     0.03700
C1597       C  0.93867640  0.44810807  0.72956452    -0.21700
C1598       C  0.93347334  0.43686899  0.73855621     0.12800
S1599       S  0.93269302  0.41915637  0.76077817    -0.05400
C1600       C  0.92030439  0.41769650  0.74681177    -0.08800
C1601       C  0.92190215  0.42780635  0.73573330    -0.25400
S1602       S  0.95886127  0.47008457  0.72514809    -0.02600
C1603       C  0.97060149  0.47219434  0.73965345    -0.16100
C1604       C  0.96833453  0.46248609  0.75098829    -0.14100
H1605       H  0.95706875  0.43947281  0.76714527     0.21300
H1606       H  0.93360919  0.45047468  0.71918084     0.17300
H1607       H  0.91513018  0.42829210  0.72609096     0.19900
H1608       H  0.97466267  0.46220185  0.76094171     0.13200
C1609       C  0.26562844  0.62901030  0.06329286     0.17100
C1610       C  0.26864905  0.64059476  0.05383840    -0.32000
C1611       C  0.28190312  0.64024829  0.04626085     0.21500
C1612       C  0.29168847  0.62881103  0.04787760     0.03700
C1613       C  0.28854994  0.61707007  0.05716335    -0.21700
C1614       C  0.27531062  0.61746319  0.06483642     0.12800
S1615       S  0.25082396  0.62819993  0.07448745    -0.05400
C1616       C  0.25766931  0.61209562  0.08127159    -0.08800
C1617       C  0.27067920  0.60757810  0.07504895    -0.25400
S1618       S  0.30738206  0.63073958  0.03801507    -0.02600
C1619       C  0.30065074  0.64712100  0.03166335    -0.16100
C1620       C  0.28696154  0.65075378  0.03696214    -0.14100
H1621       H  0.26116672  0.64968424  0.05273232     0.21300
H1622       H  0.29622408  0.60819022  0.05858909     0.17300
H1623       H  0.27685032  0.59809560  0.07846032     0.19900
H1624       H  0.28103324  0.66060509  0.03420291     0.13200
C1625       C  0.21642620  0.54328275  0.14870986     0.17100
C1626       C  0.22643119  0.55472454  0.14732477    -0.32000
C1627       C  0.22831261  0.56083356  0.13347391     0.21500
C1628       C  0.22074532  0.55567907  0.12146222     0.03700
C1629       C  0.21063845  0.54428676  0.12286582    -0.21700
C1630       C  0.20858817  0.53830747  0.13678413     0.12800
S1631       S  0.21268701  0.53439503  0.16458066    -0.05400
C1632       C  0.20023209  0.52400224  0.15513711    -0.08800
C1633       C  0.19914035  0.52730838  0.14044313    -0.25400
S1634       S  0.22442076  0.56482249  0.10567603    -0.02600
C1635       C  0.23607414  0.57586262  0.11544124    -0.16100
C1636       C  0.23705314  0.57243488  0.13009918    -0.14100
H1637       H  0.23239640  0.55877559  0.15666272     0.21300
H1638       H  0.20453428  0.54036868  0.11356309     0.17300
H1639       H  0.19200662  0.52180184  0.13282265     0.19900
H1640       H  0.24353850  0.57839362  0.13795744     0.13200
C1641       C  0.24052744  0.55078884  0.04438983     0.17100
C1642       C  0.23496349  0.56264737  0.05225263    -0.32000
C1643       C  0.24281990  0.56734390  0.06446002     0.21500
C1644       C  0.25558679  0.56043575  0.06879921     0.03700
C1645       C  0.26129051  0.54870663  0.06077049    -0.21700
C1646       C  0.25350112  0.54411352  0.04842885     0.12800
S1647       S  0.23230599  0.54320902  0.02956001    -0.05400
C1648       C  0.24661117  0.53105650  0.02856617    -0.08800
C1649       C  0.25716320  0.53286008  0.03924312    -0.25400
S1650       S  0.26316479  0.56746762  0.08430282    -0.02600
C1651       C  0.24913138  0.57993866  0.08464780    -0.16100
C1652       C  0.23914687  0.57868798  0.07345311    -0.14100
H1653       H  0.22489168  0.56792909  0.04904423     0.21300
H1654       H  0.27129957  0.54334871  0.06404397     0.17300
H1655       H  0.26679247  0.52610336  0.04040716     0.19900
H1656       H  0.22965900  0.58560590  0.07212292     0.13200
C1657       C  0.26783730  0.36202497  0.05353179     0.17100
C1658       C  0.27223127  0.35052591  0.04447694    -0.32000
C1659       C  0.28518681  0.35230362  0.03657027     0.21500
C1660       C  0.29332235  0.36502070  0.03747766     0.03700
C1661       C  0.28874144  0.37665161  0.04627829    -0.21700
C1662       C  0.27586774  0.37481725  0.05431954     0.12800
S1663       S  0.25345783  0.36131494  0.06528384    -0.05400
C1664       C  0.25825856  0.37846133  0.07129101    -0.08800
C1665       C  0.27032147  0.38436496  0.06439411    -0.25400
S1666       S  0.30907128  0.36475173  0.02754694    -0.02600
C1667       C  0.30462297  0.34733491  0.02208161    -0.16100
C1668       C  0.29156974  0.34214693  0.02767465    -0.14100
H1669       H  0.26609103  0.34044663  0.04399539     0.21300
H1670       H  0.29516394  0.38652269  0.04716362     0.17300
H1671       H  0.27547375  0.39454243  0.06736014     0.19900
H1672       H  0.28704730  0.33146237  0.02544182     0.13200
C1673       C  0.22091003  0.43225464  0.11523722     0.17100
C1674       C  0.21024343  0.44291051  0.11789757    -0.32000
C1675       C  0.20921500  0.44851717  0.13208105     0.21500
C1676       C  0.21860769  0.44396685  0.14302122     0.03700
C1677       C  0.22926876  0.43335159  0.14035200    -0.21700
C1678       C  0.23007693  0.42752025  0.12627802     0.12800
S1679       S  0.22328325  0.42333965  0.09908548    -0.05400
C1680       C  0.23655948  0.41293266  0.10738808    -0.08800
C1681       C  0.23903615  0.41642129  0.12185159    -0.25400
S1682       S  0.21565218  0.45204094  0.15948099    -0.02600
C1683       C  0.20141394  0.46147217  0.15165783    -0.16100
C1684       C  0.19923590  0.45853141  0.13700269    -0.14100
H1685       H  0.20286304  0.44642541  0.10938432     0.21300
H1686       H  0.23641506  0.42957454  0.14895337     0.17300
H1687       H  0.24665474  0.41077457  0.12889288     0.19900
H1688       H  0.19085967  0.46349135  0.13031472     0.13200
C1689       C  0.25422816  0.43176093  0.06268818     0.17100
C1690       C  0.25983131  0.44416637  0.05579029    -0.32000
C1691       C  0.25099253  0.45112898  0.04546356     0.21500
C1692       C  0.23704651  0.44618142  0.04234084     0.03700
C1693       C  0.23147786  0.43365992  0.04913862    -0.21700
C1694       C  0.24046922  0.42648055  0.05923086     0.12800
S1695       S  0.26316388  0.42202800  0.07577710    -0.05400
C1696       C  0.24844227  0.41044891  0.07619738    -0.08800
C1697       C  0.23714326  0.41406685  0.06687428    -0.25400
S1698       S  0.22806339  0.45629353  0.02952418    -0.02600
C1699       C  0.24345116  0.46698483  0.02805504    -0.16100
C1700       C  0.25475427  0.46300419  0.03724782    -0.14100
H1701       H  0.27064794  0.44817548  0.05830893     0.21300
H1702       H  0.22067759  0.42962870  0.04658938     0.17300
H1703       H  0.22694682  0.40817197  0.06608872     0.19900
H1704       H  0.26524589  0.46840243  0.03775269     0.13200
C1705       C  0.26588601  0.63444331  0.93724870     0.17100
C1706       C  0.26964491  0.64616439  0.94627290    -0.32000
C1707       C  0.28215289  0.64467811  0.95490853     0.21500
C1708       C  0.29047709  0.63202987  0.95470674     0.03700
C1709       C  0.28651239  0.62015939  0.94594215    -0.21700
C1710       C  0.27406554  0.62169432  0.93720241     0.12800
S1711       S  0.25215860  0.63480112  0.92473782    -0.05400
C1712       C  0.25743981  0.61757334  0.91943772    -0.08800
C1713       C  0.26911290  0.61185576  0.92712764    -0.25400
S1714       S  0.30558914  0.63264310  0.96553987    -0.02600
C1715       C  0.30057610  0.65009380  0.97045933    -0.16100
C1716       C  0.28784636  0.65505483  0.96399459    -0.14100
H1717       H  0.26336315  0.65618330  0.94621825     0.21300
H1718       H  0.29306738  0.61032154  0.94564087     0.17300
H1719       H  0.27436604  0.60153807  0.92474694     0.19900
H1720       H  0.28302800  0.66569776  0.96582408     0.13200
C1721       C  0.23178837  0.56356405  0.86612152     0.17100
C1722       C  0.22843896  0.55465446  0.85421503    -0.32000
C1723       C  0.21580195  0.54614204  0.85508363     0.21500
C1724       C  0.20699694  0.54626193  0.86736308     0.03700
C1725       C  0.21053031  0.55494132  0.87943415    -0.21700
C1726       C  0.22307888  0.56364072  0.87847623     0.12800
S1727       S  0.24558366  0.57599337  0.86635885    -0.05400
C1728       C  0.23961022  0.58135976  0.88328510    -0.08800
C1729       C  0.22765384  0.57374152  0.88849096    -0.25400
S1730       S  0.19176083  0.53565597  0.86592359    -0.02600
C1731       C  0.19731050  0.53110306  0.84856833    -0.16100
C1732       C  0.21033819  0.53742534  0.84429500    -0.14100
H1733       H  0.23509331  0.55477098  0.84447118     0.21300
H1734       H  0.20355374  0.55526698  0.88894526     0.17300
H1735       H  0.22196437  0.57620069  0.89852419     0.19900
H1736       H  0.21545579  0.53587334  0.83377699     0.13200
C1737       C  0.24220716  0.57032123  0.93549854     0.17100
C1738       C  0.23671947  0.56253946  0.94740305    -0.32000
C1739       C  0.24471318  0.55045464  0.95227139     0.21500
C1740       C  0.25777612  0.54641631  0.94579253     0.03700
C1741       C  0.26317906  0.55407623  0.93370900    -0.21700
C1742       C  0.25501425  0.56602331  0.92864809     0.12800
S1743       S  0.23414077  0.58540995  0.92814965    -0.05400
C1744       C  0.24792366  0.58566252  0.91548888    -0.08800
C1745       C  0.25827757  0.57475446  0.91696198    -0.25400
S1746       S  0.26601907  0.53167587  0.95374329    -0.02600
C1747       C  0.25146813  0.53074905  0.96559582    -0.16100
C1748       C  0.24096528  0.54141242  0.96351823    -0.14100
H1749       H  0.22662600  0.56575085  0.95263344     0.21300
H1750       H  0.27326530  0.55085447  0.92847328     0.17300
H1751       H  0.26769900  0.57344252  0.90997493     0.19900
H1752       H  0.23114889  0.54254888  0.96998584     0.13200
C1753       C  0.27495611  0.36976621  0.92963438     0.17100
C1754       C  0.27762345  0.35806318  0.93906050    -0.32000
C1755       C  0.29091987  0.35787955  0.94656822     0.21500
C1756       C  0.30108988  0.36894644  0.94494167     0.03700
C1757       C  0.29835165  0.38078236  0.93560355    -0.21700
C1758       C  0.28506350  0.38089874  0.92796550     0.12800
S1759       S  0.26000566  0.37123697  0.91869587    -0.05400
C1760       C  0.26733051  0.38706709  0.91183249    -0.08800
C1761       C  0.28067632  0.39096439  0.91776945    -0.25400
S1762       S  0.31664725  0.36647669  0.95494943    -0.02600
C1763       C  0.30936332  0.35032072  0.96128094    -0.16100
C1764       C  0.29559278  0.34719488  0.95589280    -0.14100
H1765       H  0.26980027  0.34929474  0.94024306     0.16500
H1766       H  0.30632295  0.38937392  0.93416128     0.17300
H1767       H  0.28716361  0.40017326  0.91424416     0.19900
H1768       H  0.28927757  0.33761814  0.95870485     0.13200
C1769       C  0.22347107  0.44017824  0.87334834     0.17100
C1770       C  0.21174203  0.44992427  0.87195536    -0.32000
C1771       C  0.20943682  0.45636156  0.85827740     0.21500
C1772       C  0.21854092  0.45342142  0.84657618     0.03700
C1773       C  0.23022606  0.44365066  0.84796099    -0.21700
C1774       C  0.23239087  0.43705690  0.86156811     0.12800
S1775       S  0.22769559  0.43065124  0.88877812    -0.05400
C1776       C  0.24150452  0.42220274  0.87920923    -0.08800
C1777       C  0.24269904  0.42674462  0.86485217    -0.25400
S1778       S  0.21416061  0.46261304  0.83101028    -0.02600
C1779       C  0.19976043  0.47036014  0.84028318    -0.16100
C1780       C  0.19855293  0.46599565  0.85469485    -0.14100
H1781       H  0.20462098  0.45224576  0.88107464     0.21300
H1782       H  0.23723658  0.44118266  0.83879342     0.17300
H1783       H  0.25043731  0.42236573  0.85707934     0.19900
H1784       H  0.19035631  0.46992134  0.86223512     0.13200
C1785       C  0.24235872  0.44821327  0.94857552     0.17100
C1786       C  0.23710272  0.43697676  0.93964040    -0.32000
C1787       C  0.24656613  0.43134623  0.92902687     0.21500
C1788       C  0.26060624  0.43673658  0.92730254     0.03700
C1789       C  0.26593396  0.44778755  0.93640401    -0.21700
C1790       C  0.25651215  0.45333744  0.94708639     0.12800
S1791       S  0.23245248  0.45685789  0.96176117    -0.05400
C1792       C  0.24762918  0.46729618  0.96547985    -0.08800
C1793       C  0.25965366  0.46418307  0.95687475    -0.25400
S1794       S  0.27019922  0.42890264  0.91340325    -0.02600
C1795       C  0.25517804  0.41822831  0.91000498    -0.16100
C1796       C  0.24345359  0.42051684  0.91921003    -0.14100
H1797       H  0.22608470  0.43289874  0.94081807     0.21300
H1798       H  0.27690458  0.45196416  0.93513448     0.17300
H1799       H  0.27004611  0.46974798  0.95756652     0.19900
H1800       H  0.23319210  0.41471671  0.91857647     0.13200
C1801       C  0.63131997  0.28787041  0.04577243     0.17100
C1802       C  0.61941851  0.28282875  0.05396889    -0.32000
C1803       C  0.62095868  0.26939284  0.06117968     0.21500
C1804       C  0.63376029  0.26136667  0.06024719     0.03700
C1805       C  0.64555735  0.26631878  0.05195100    -0.21700
C1806       C  0.64404320  0.27973089  0.04480632     0.12800
S1807       S  0.63185065  0.30398085  0.03638000    -0.05400
C1808       C  0.64937976  0.29962026  0.03108648    -0.08800
C1809       C  0.65440949  0.28639214  0.03641133    -0.25400
S1810       S  0.63399840  0.24598427  0.07065820    -0.02600
C1811       C  0.61662535  0.25029184  0.07632861    -0.16100
C1812       C  0.61099913  0.26300223  0.07033059    -0.14100
H1813       H  0.60949495  0.28919058  0.05486659     0.21300
H1814       H  0.65560189  0.26011371  0.05132138     0.17300
H1815       H  0.66507828  0.28181977  0.03417134     0.19900
H1816       H  0.60064352  0.26785121  0.07325165     0.13200
C1817       C  0.55970482  0.21215395  0.11614567     0.17100
C1818       C  0.54817199  0.20233588  0.11837225    -0.32000
C1819       C  0.54205758  0.20164969  0.13238611     0.21500
C1820       C  0.54699313  0.21055965  0.14355638     0.03700
C1821       C  0.55846219  0.22034820  0.14132238    -0.21700
C1822       C  0.56475492  0.22080859  0.12744929     0.12800
S1823       S  0.56929311  0.21408119  0.10028164    -0.05400
C1824       C  0.58034419  0.22644873  0.10912998    -0.08800
C1825       C  0.57657815  0.22895692  0.12350487    -0.25400
S1826       S  0.53830642  0.20811161  0.15977150    -0.02600
C1827       C  0.52804540  0.19471576  0.15156594    -0.16100
C1828       C  0.53118341  0.19244454  0.13695209    -0.14100
H1829       H  0.54435871  0.19532889  0.10967782     0.21300
H1830       H  0.56251722  0.22709895  0.15011170     0.17300
H1831       H  0.58249319  0.23608038  0.13082953     0.19900
H1832       H  0.52582824  0.18448587  0.13007259     0.13200
C1833       C  0.54779941  0.25304022  0.04704266     0.17100
C1834       C  0.55600070  0.25777540  0.05904035    -0.32000
C1835       C  0.56659026  0.24819775  0.06459699     0.21500
C1836       C  0.56904014  0.23461011  0.05835516     0.03700
C1837       C  0.56065233  0.22978189  0.04658960    -0.21700
C1838       C  0.54997057  0.23926094  0.04117064     0.12800
S1839       S  0.53462372  0.26305469  0.03842047    -0.05400
C1840       C  0.53184777  0.24835008  0.02706288    -0.08800
C1841       C  0.54074453  0.23645500  0.02983076    -0.25400
S1842       S  0.58278438  0.22481541  0.06618329    -0.02600
C1843       C  0.58494437  0.23898615  0.07823348    -0.16100
C1844       C  0.57563354  0.25070451  0.07621693    -0.14100
H1845       H  0.55424944  0.26844981  0.06379052     0.21300
H1846       H  0.56241986  0.21911717  0.04181842     0.17300
H1847       H  0.54054917  0.22631659  0.02376684     0.19900
H1848       H  0.57557904  0.26048280  0.08283183     0.13200
C1849       C  0.35430317  0.28140880  0.04213396     0.17100
C1850       C  0.35534525  0.27083805  0.05310188    -0.32000
C1851       C  0.36899946  0.26871262  0.05964051     0.21500
C1852       C  0.38118380  0.27649842  0.05524824     0.03700
C1853       C  0.38014423  0.28709433  0.04426259    -0.21700
C1854       C  0.36638755  0.28948001  0.03795486     0.12800
S1855       S  0.33862392  0.28581901  0.03312789    -0.05400
C1856       C  0.34832437  0.29894590  0.02384632    -0.08800
C1857       C  0.36299541  0.29966150  0.02751693    -0.25400
S1858       S  0.39662524  0.27259875  0.06493749    -0.02600
C1859       C  0.38646611  0.26060281  0.07522988    -0.16100
C1860       C  0.37195227  0.25963671  0.07111087    -0.14100
H1861       H  0.34585696  0.26474181  0.05659281     0.21300
H1862       H  0.38956381  0.29341926  0.04100490     0.17300
H1863       H  0.37076674  0.30714955  0.02273339     0.19900
H1864       H  0.36387099  0.25296086  0.07654137     0.13200
C1865       C  0.44838404  0.21435896  0.14643059     0.17100
C1866       C  0.43832361  0.22565653  0.14416944    -0.32000
C1867       C  0.43227748  0.22705884  0.13021276     0.21500
C1868       C  0.43617729  0.21775784  0.11895754     0.03700
C1869       C  0.44613958  0.20637871  0.12125261    -0.21700
C1870       C  0.45206123  0.20486417  0.13524997     0.12800
S1871       S  0.45712380  0.21096102  0.16248743    -0.05400
C1872       C  0.46566575  0.19645751  0.15410185    -0.08800
C1873       C  0.46188477  0.19447768  0.13962668    -0.25400
S1874       S  0.42748994  0.22121371  0.10287742    -0.02600
C1875       C  0.41833382  0.23521782  0.11144427    -0.16100
C1876       C  0.42198098  0.23703018  0.12598895    -0.14100
H1877       H  0.43529902  0.23299127  0.15291210     0.21300
H1878       H  0.44908394  0.19898269  0.11253542     0.17300
H1879       H  0.46631553  0.18607576  0.13260272     0.19900
H1880       H  0.41712604  0.24505892  0.13316759     0.13200
C1881       C  0.43147178  0.24027933  0.05934199     0.17100
C1882       C  0.43879496  0.23482891  0.04709669    -0.32000
C1883       C  0.45049823  0.24299225  0.04160974     0.21500
C1884       C  0.45462878  0.25611404  0.04790309     0.03700
C1885       C  0.44751321  0.26141576  0.06035652    -0.21700
C1886       C  0.43592258  0.25314897  0.06596188     0.12800
S1887       S  0.41652910  0.23236677  0.06714894    -0.05400
C1888       C  0.41657710  0.24632502  0.07965847    -0.08800
C1889       C  0.42748932  0.25657894  0.07781591    -0.25400
S1890       S  0.46869009  0.26467392  0.03917750    -0.02600
C1891       C  0.46925338  0.25021954  0.02717824    -0.16100
C1892       C  0.45897501  0.23946463  0.02982078    -0.14100
H1893       H  0.43542686  0.22473300  0.04198072     0.21300
H1894       H  0.45078222  0.27159188  0.06537789     0.17300
H1895       H  0.42883669  0.26620946  0.08450908     0.19900
H1896       H  0.45771095  0.22964342  0.02338323     0.13200
C1897       C  0.63525791  0.26704238  0.93693658     0.17100
C1898       C  0.64672971  0.27062281  0.94634193    -0.32000
C1899       C  0.64520248  0.28321034  0.95486517     0.21500
C1900       C  0.63271039  0.29174110  0.95423779     0.03700
C1901       C  0.62109466  0.28798513  0.94504665    -0.21700
C1902       C  0.62270751  0.27549290  0.93636395     0.12800
S1903       S  0.63577309  0.25321504  0.92454551    -0.05400
C1904       C  0.61888606  0.25881430  0.91853147    -0.08800
C1905       C  0.61318097  0.27072275  0.92588907    -0.25400
S1906       S  0.63324787  0.30689895  0.96502147    -0.02600
C1907       C  0.65050957  0.30170684  0.97039202    -0.16100
C1908       C  0.65543195  0.28883330  0.96416978    -0.14100
H1909       H  0.65662256  0.26415506  0.94663939     0.21300
H1910       H  0.61141488  0.29474004  0.94437372     0.17300
H1911       H  0.60317065  0.27627837  0.92303544     0.19900
H1912       H  0.66596218  0.28389321  0.96627685     0.13200
C1913       C  0.56750717  0.23010652  0.86412910     0.17100
C1914       C  0.55856100  0.22668415  0.85227515    -0.32000
C1915       C  0.55035904  0.21383023  0.85307213     0.21500
C1916       C  0.55092822  0.20478330  0.86516035     0.03700
C1917       C  0.55970151  0.20834400  0.87715862    -0.21700
C1918       C  0.56796754  0.22120447  0.87633776     0.12800
S1919       S  0.57929700  0.24446348  0.86460727    -0.05400
C1920       C  0.58480034  0.23854371  0.88150394    -0.08800
C1921       C  0.57779946  0.22611008  0.88645905    -0.25400
S1922       S  0.54046423  0.18942178  0.86369731    -0.02600
C1923       C  0.53525683  0.19533154  0.84664793    -0.16100
C1924       C  0.54135152  0.20850726  0.84246456    -0.14100
H1925       H  0.55828025  0.23355770  0.84268690     0.21300
H1926       H  0.56028953  0.20126171  0.88657930     0.17300
H1927       H  0.58043497  0.22044366  0.89646007     0.19900
H1928       H  0.53933994  0.21389690  0.83216195     0.13200
C1929       C  0.56632750  0.25535815  0.92771365     0.17100
C1930       C  0.55439538  0.26103620  0.93539923    -0.32000
C1931       C  0.54800564  0.25219551  0.94609858     0.21500
C1932       C  0.55309475  0.23821225  0.94887714     0.03700
C1933       C  0.56514988  0.23258076  0.94130508    -0.21700
C1934       C  0.57170695  0.24152536  0.93077113     0.12800
S1935       S  0.57545114  0.26433482  0.91420837    -0.05400
C1936       C  0.58688760  0.24949936  0.91304526    -0.08800
C1937       C  0.58364670  0.23813440  0.92241266    -0.25400
S1938       S  0.54359968  0.22914473  0.96208770    -0.02600
C1939       C  0.53287798  0.24448434  0.96411297    -0.16100
C1940       C  0.53649041  0.25589730  0.95488606    -0.14100
H1941       H  0.55029417  0.27189314  0.93316413     0.21300
H1942       H  0.56927025  0.22173677  0.94356478     0.17300
H1943       H  0.58963785  0.22796220  0.92295854     0.19900
H1944       H  0.53096640  0.26634730  0.95461095     0.13200
C1945       C  0.37125534  0.29023017  0.94734546     0.17100
C1946       C  0.38295793  0.28568455  0.93860540    -0.32000
C1947       C  0.38152848  0.27233931  0.93122940     0.21500
C1948       C  0.36909004  0.26384912  0.93262133     0.03700
C1949       C  0.35753001  0.26827281  0.94151390    -0.21700
C1950       C  0.35886611  0.28167155  0.94869663     0.12800
S1951       S  0.37050371  0.30627755  0.95682968    -0.05400
C1952       C  0.35329703  0.30134616  0.96258532    -0.08800
C1953       C  0.34854748  0.28798853  0.95738040    -0.25400
S1954       S  0.36874776  0.24881758  0.92172251    -0.02600
C1955       C  0.38550255  0.25402809  0.91510170    -0.16100
C1956       C  0.39110256  0.26663381  0.92128340    -0.14100
H1957       H  0.39257067  0.29241842  0.93730637     0.21300
H1958       H  0.34771399  0.26177004  0.94243187     0.17300
H1959       H  0.33810331  0.28308455  0.95990386     0.19900
H1960       H  0.40103261  0.27198926  0.91785516     0.13200
C1961       C  0.43769109  0.22649792  0.86095949     0.17100
C1962       C  0.44651471  0.22297880  0.84903891    -0.32000
C1963       C  0.45648448  0.21152465  0.85073933     0.21500
C1964       C  0.45768713  0.20391431  0.86373814     0.03700
C1965       C  0.44907838  0.20765611  0.87578804    -0.21700
C1966       C  0.43906294  0.21910822  0.87407357     0.12800
S1967       S  0.42396529  0.23903577  0.86056802    -0.05400
C1968       C  0.42013465  0.23441358  0.87830412    -0.08800
C1969       C  0.42909926  0.22376180  0.88417412    -0.25400
S1970       S  0.46998955  0.18991623  0.86331182    -0.02600
C1971       C  0.47363560  0.19451478  0.84549063    -0.16100
C1972       C  0.46569085  0.20625685  0.84026803    -0.14100
H1973       H  0.44538836  0.22866435  0.83876164     0.21300
H1974       H  0.44990419  0.20168738  0.88593184     0.17300
H1975       H  0.42779086  0.21901530  0.89488640     0.19900
H1976       H  0.46651267  0.21062227  0.82933986     0.13200
C1977       C  0.43784047  0.25293083  0.92438152     0.17100
C1978       C  0.44963212  0.25906481  0.93196904    -0.32000
C1979       C  0.45500281  0.25142260  0.94409503     0.21500
C1980       C  0.44907109  0.23814273  0.94826749     0.03700
C1981       C  0.43718564  0.23213355  0.94083874    -0.21700
C1982       C  0.43164460  0.23988890  0.92893412     0.12800
S1983       S  0.42974190  0.26037422  0.90933291    -0.05400
C1984       C  0.41768793  0.24599741  0.90961473    -0.08800
C1985       C  0.41994965  0.23593441  0.92057027    -0.25400
S1986       S  0.45738768  0.23023942  0.96285051    -0.02600
C1987       C  0.46878990  0.24512690  0.96364109    -0.16100
C1988       C  0.46627013  0.25559926  0.95302690    -0.14100
H1989       H  0.45437838  0.26933724  0.92859646     0.21300
H1990       H  0.43243253  0.22186577  0.94422223     0.17300
H1991       H  0.41340136  0.22625331  0.92223811     0.19900
H1992       H  0.47246815  0.26557590  0.95179373     0.13200
C1993       C  0.63623888  0.05686375  0.72941842     0.17100
C1994       C  0.64728135  0.04692545  0.72584747    -0.32000
C1995       C  0.64518658  0.03815905  0.71352125     0.21500
C1996       C  0.63260591  0.03910126  0.70518603     0.03700
C1997       C  0.62140421  0.04880322  0.70896184    -0.21700
C1998       C  0.62355349  0.05766826  0.72122010     0.12800
S1999       S  0.63733395  0.06945032  0.74306345    -0.05400
C2000       C  0.62045082  0.07571601  0.73777616    -0.08800
C2001       C  0.61436961  0.06840182  0.72607324    -0.25400
S2002       S  0.63257502  0.02811783  0.69015422    -0.02600
C2003       C  0.64969985  0.02221440  0.69516854    -0.16100
C2004       C  0.65497623  0.02839670  0.70789677    -0.14100
H2005       H  0.65726634  0.04637288  0.73212810     0.21300
H2006       H  0.61162763  0.04969931  0.70240134     0.17300
H2007       H  0.60417976  0.07130735  0.72087452     0.19900
H2008       H  0.66556030  0.02610456  0.71262085     0.13200
C2009       C  0.55362991  0.14514792  0.77913517     0.17100
C2010       C  0.56374578  0.14283486  0.76794375    -0.32000
C2011       C  0.57023990  0.12901089  0.76699154     0.21500
C2012       C  0.56663540  0.11787370  0.77654959     0.03700
C2013       C  0.55650655  0.12018577  0.78774370    -0.21700
C2014       C  0.55021580  0.13410081  0.78887193     0.12800
S2015       S  0.54474353  0.16121558  0.78228937    -0.05400
C2016       C  0.53648230  0.15302884  0.79701742    -0.08800
C2017       C  0.54042728  0.13858536  0.79921519    -0.25400
S2018       S  0.57616355  0.10207200  0.77387504    -0.02600
C2019       C  0.58531234  0.11067134  0.75993563    -0.16100
C2020       C  0.58098115  0.12494984  0.75747249    -0.14100
H2021       H  0.56662506  0.15150424  0.76047142     0.21300
H2022       H  0.55385292  0.11160627  0.79539943     0.17300
H2023       H  0.53624111  0.13169067  0.80782646     0.19900
H2024       H  0.58582376  0.13213848  0.74946378     0.13200
C2025       C  0.57452362  0.05810569  0.75335856     0.17100
C2026       C  0.56688241  0.04575966  0.75812907    -0.32000
C2027       C  0.55555505  0.04054516  0.74927910     0.21500
C2028       C  0.55221599  0.04707324  0.73606824     0.03700
C2029       C  0.55976436  0.05951127  0.73135548    -0.21700
C2030       C  0.57083632  0.06496142  0.74039117     0.12800
S2031       S  0.58868628  0.06605405  0.76248925    -0.05400
C2032       C  0.58924569  0.07898159  0.74893762    -0.08800
C2033       C  0.57919111  0.07709875  0.73787106    -0.25400
S2034       S  0.53820307  0.03893794  0.72685832    -0.02600
C2035       C  0.53650778  0.02694159  0.74119528    -0.16100
C2036       C  0.54648659  0.02906511  0.75233731    -0.14100
H2037       H  0.56955663  0.04052910  0.76835751     0.21300
H2038       H  0.55702587  0.06479714  0.72117291     0.17300
H2039       H  0.57828033  0.08408017  0.72840828     0.19900
H2040       H  0.54699645  0.02260949  0.76220003     0.13200
C2041       C  0.35492154  0.05018124  0.71102945     0.17100
C2042       C  0.35712012  0.06100454  0.72157514    -0.32000
C2043       C  0.37111590  0.06704983  0.72272791     0.21500
C2044       C  0.38249960  0.06243943  0.71391453     0.03700
C2045       C  0.38026328  0.05171215  0.70324232    -0.21700
C2046       C  0.36619966  0.04578041  0.70196519     0.12800
S2047       S  0.33877714  0.04139684  0.70803856    -0.05400
C2048       C  0.34719702  0.03188418  0.69420866    -0.08800
C2049       C  0.36179310  0.03535276  0.69219437    -0.25400
S2050       S  0.39864560  0.07121901  0.71708661    -0.02600
C2051       C  0.38990111  0.08130737  0.73031047    -0.16100
C2052       C  0.37526617  0.07794527  0.73203965    -0.14100
H2053       H  0.34829126  0.06459833  0.72854503     0.21300
H2054       H  0.38906599  0.04820299  0.69619881     0.17300
H2055       H  0.36884523  0.03036986  0.68413976     0.19900
H2056       H  0.36799140  0.08335756  0.73960932     0.13200
C2057       C  0.44267770  0.11953851  0.77535476     0.17100
C2058       C  0.45225350  0.12151541  0.78711454    -0.32000
C2059       C  0.45987037  0.13478091  0.78791268     0.21500
C2060       C  0.45816035  0.14548854  0.77737552     0.03700
C2061       C  0.44864317  0.14349288  0.76563278    -0.21700
C2062       C  0.44090142  0.13034787  0.76494612     0.12800
S2063       S  0.43178800  0.10463442  0.77277514    -0.05400
C2064       C  0.42472888  0.11312972  0.75758648    -0.08800
C2065       C  0.43059204  0.12676082  0.75479266    -0.25400
S2066       S  0.46822436  0.16083857  0.78027174    -0.02600
C2067       C  0.47476380  0.15286650  0.79595084    -0.16100
C2068       C  0.46940391  0.13896827  0.79865025    -0.14100
H2069       H  0.45352030  0.11320048  0.79539366     0.21300
H2070       H  0.44715307  0.15192714  0.75751008     0.17300
H2071       H  0.42715519  0.13385753  0.74600678     0.19900
H2072       H  0.47232676  0.13230171  0.80793845     0.13200
C2073       C  0.43590502  0.06243865  0.75104653     0.17100
C2074       C  0.44398864  0.05087449  0.75694784    -0.32000
C2075       C  0.45506768  0.04478210  0.74833460     0.21500
C2076       C  0.45787088  0.04983715  0.73438138     0.03700
C2077       C  0.44999536  0.06161925  0.72858838    -0.21700
C2078       C  0.43903699  0.06784051  0.73727968     0.12800
S2079       S  0.42177847  0.07104420  0.75963582    -0.05400
C2080       C  0.42044989  0.08231603  0.74472895    -0.08800
C2081       C  0.43026364  0.07941411  0.73365127    -0.25400
S2082       S  0.47128725  0.04046284  0.72543853    -0.02600
C2083       C  0.47335453  0.02983828  0.74078401    -0.16100
C2084       C  0.46405272  0.03343569  0.75213902    -0.14100
H2085       H  0.44168816  0.04674929  0.76775171     0.21300
H2086       H  0.45225669  0.06570615  0.71776218     0.17300
H2087       H  0.43087079  0.08543046  0.72352782     0.19900
H2088       H  0.46371490  0.02787084  0.76253448     0.13200
C2089       C  0.63377714  0.92656525  0.72654928     0.17100
C2090       C  0.64587033  0.93497932  0.72252739    -0.32000
C2091       C  0.64438790  0.94415456  0.71041178     0.21500
C2092       C  0.63143967  0.94495819  0.70264527     0.03700
C2093       C  0.61926451  0.93669472  0.70680880    -0.21700
C2094       C  0.62074823  0.92749550  0.71893255     0.12800
S2095       S  0.63376964  0.91395111  0.74017831    -0.05400
C2096       C  0.61597258  0.90992544  0.73568621    -0.08800
C2097       C  0.61042053  0.91805741  0.72422508    -0.25400
S2098       S  0.63199866  0.95652464  0.68807220    -0.02600
C2099       C  0.64982239  0.96042172  0.69258707    -0.16100
C2100       C  0.65495401  0.95304614  0.70473427    -0.14100
H2101       H  0.65607382  0.93420739  0.72842227     0.21300
H2102       H  0.60915481  0.93724310  0.70073528     0.17300
H2103       H  0.59976616  0.91654248  0.71941321     0.19900
H2104       H  0.66582341  0.95417852  0.70921453     0.13200
C2105       C  0.55912251  0.87098917  0.77397751     0.17100
C2106       C  0.54856599  0.86945440  0.78493624    -0.32000
C2107       C  0.54240933  0.85557193  0.78697670     0.21500
C2108       C  0.54637486  0.84381763  0.77831772     0.03700
C2109       C  0.55694467  0.84534123  0.76741583    -0.21700
C2110       C  0.56327224  0.85913584  0.76555357     0.12800
S2111       S  0.56858075  0.88664974  0.77032169    -0.05400
C2112       C  0.57845212  0.87700717  0.75755772    -0.08800
C2113       C  0.57434480  0.86251928  0.75615561    -0.25400
S2114       S  0.53743941  0.82796941  0.78226923    -0.02600
C2115       C  0.52838916  0.83718217  0.79590341    -0.16100
C2116       C  0.53217026  0.85179133  0.79719540    -0.14100
H2117       H  0.54546452  0.87860864  0.79172436     0.21300
H2118       H  0.56024594  0.83612277  0.76080753     0.17300
H2119       H  0.57962397  0.85470508  0.74903882     0.19900
H2120       H  0.52747132  0.85930354  0.80500385     0.13200
C2121       C  0.56401222  0.92366613  0.73790115     0.17100
C2122       C  0.55232413  0.93163922  0.73206312    -0.32000
C2123       C  0.54760827  0.94404331  0.73970107     0.21500
C2124       C  0.55412733  0.94822641  0.75267357     0.03700
C2125       C  0.56602839  0.94044931  0.75834690    -0.21700
C2126       C  0.57085532  0.92814590  0.75062270     0.12800
S2127       S  0.57095700  0.90798264  0.73057519    -0.05400
C2128       C  0.58342707  0.90775443  0.74456171    -0.08800
C2129       C  0.58218245  0.91911039  0.75441463    -0.25400
S2130       S  0.54632213  0.96314446  0.76066727    -0.02600
C2131       C  0.53435607  0.96397256  0.74622010    -0.16100
C2132       C  0.53636963  0.95316956  0.73583158    -0.14100
H2133       H  0.54705195  0.92824690  0.72207303     0.21300
H2134       H  0.57121740  0.94377117  0.76840411     0.17300
H2135       H  0.58903307  0.92048993  0.76391432     0.19900
H2136       H  0.52981509  0.95193153  0.72610111     0.13200
C2137       C  0.36857572  0.95420186  0.70325290     0.17100
C2138       C  0.38018168  0.94501920  0.70716309    -0.32000
C2139       C  0.37896306  0.93727298  0.72028754     0.21500
C2140       C  0.36679020  0.93868943  0.72915178     0.03700
C2141       C  0.35533015  0.94802856  0.72536946    -0.21700
C2142       C  0.35647920  0.95563244  0.71220740     0.12800
S2143       S  0.36758474  0.96412217  0.68752043    -0.05400
C2144       C  0.35067698  0.97018049  0.69310302    -0.08800
C2145       C  0.34620733  0.96478185  0.70646323    -0.25400
S2146       S  0.36671178  0.92745107  0.74391275    -0.02600
C2147       C  0.38327722  0.92075900  0.73814272    -0.16100
C2148       C  0.38857673  0.92707287  0.72550150    -0.14100
H2149       H  0.38957527  0.94370371  0.70013069     0.21300
H2150       H  0.34573762  0.94900850  0.73218901     0.17300
H2151       H  0.33594608  0.96739632  0.71170695     0.19900
H2152       H  0.39840836  0.92370817  0.71990274     0.13200
C2153       C  0.43929418  0.87744759  0.77259079     0.17100
C2154       C  0.45092671  0.87528819  0.78228702    -0.32000
C2155       C  0.45507252  0.86083763  0.78528171     0.21500
C2156       C  0.44824211  0.84912243  0.77857530     0.03700
C2157       C  0.43671384  0.85128714  0.76885702    -0.21700
C2158       C  0.43231999  0.86566313  0.76618989     0.12800
S2159       S  0.43164380  0.89396677  0.76850959    -0.05400
C2160       C  0.41871673  0.88479960  0.75840072    -0.08800
C2161       C  0.42056864  0.86980930  0.75804764    -0.25400
S2162       S  0.45472425  0.83244814  0.78359899    -0.02600
C2163       C  0.46655396  0.84126668  0.79515816    -0.16100
C2164       C  0.46557777  0.85637265  0.79494440    -0.14100
H2165       H  0.45619740  0.88442135  0.78759616     0.21300
H2166       H  0.43113537  0.84213369  0.76390310     0.17300
H2167       H  0.41327579  0.86226241  0.75263534     0.19900
H2168       H  0.47221945  0.86365424  0.80144165     0.13200
C2169       C  0.43648399  0.92961110  0.73816139     0.17100
C2170       C  0.44890318  0.93631774  0.73223733    -0.32000
C2171       C  0.45473370  0.94837065  0.73968361     0.21500
C2172       C  0.44856514  0.95339515  0.75253579     0.03700
C2173       C  0.43599013  0.94690511  0.75827961    -0.21700
C2174       C  0.43007651  0.93498726  0.75076787     0.12800
S2175       S  0.42810217  0.91446548  0.73118601    -0.05400
C2176       C  0.41573136  0.91571265  0.74522338    -0.08800
C2177       C  0.41801316  0.92714576  0.75476701    -0.25400
S2178       S  0.45764344  0.96762891  0.76035248    -0.02600
C2179       C  0.46972871  0.96707948  0.74600458    -0.16100
C2180       C  0.46680476  0.95633260  0.73576205    -0.14100
H2181       H  0.45388437  0.93223441  0.72235252     0.21300
H2182       H  0.43110765  0.95088476  0.76825652     0.17300
H2183       H  0.41138964  0.92933479  0.76427968     0.19900
H2184       H  0.47329708  0.95431003  0.72611954     0.13200
C2185       C  0.63423204  0.72644043  0.06045178     0.17100
C2186       C  0.64507193  0.72216484  0.05057830    -0.32000
C2187       C  0.64288819  0.70916006  0.04283806     0.21500
C2188       C  0.63048747  0.70074455  0.04483178     0.03700
C2189       C  0.61954655  0.70512360  0.05457798    -0.21700
C2190       C  0.62169227  0.71817888  0.06227355     0.12800
S2191       S  0.63535985  0.74124570  0.07166705    -0.05400
C2192       C  0.61864661  0.73640901  0.07868954    -0.08800
C2193       C  0.61260111  0.72396774  0.07263304    -0.25400
S2194       S  0.63011067  0.68514376  0.03462713    -0.02600
C2195       C  0.64677212  0.69009989  0.02749033    -0.16100
C2196       C  0.65224222  0.70313573  0.03288056    -0.14100
H2197       H  0.65489087  0.72857106  0.04916317     0.21300
H2198       H  0.60986914  0.69856081  0.05621667     0.17300
H2199       H  0.60252173  0.71897358  0.07621588     0.19900
H2200       H  0.66253706  0.70795920  0.02968468     0.13200
C2201       C  0.55277227  0.77504289  0.15044163     0.17100
C2202       C  0.56405027  0.76510079  0.14775823    -0.32000
C2203       C  0.56993050  0.76470455  0.13369156     0.21500
C2204       C  0.56471401  0.77363720  0.12267700     0.03700
C2205       C  0.55344464  0.78365454  0.12537769    -0.21700
C2206       C  0.54768855  0.78420395  0.13953892     0.12800
S2207       S  0.54432047  0.77721585  0.16683340    -0.05400
C2208       C  0.53393226  0.79078343  0.15903151    -0.08800
C2209       C  0.53690478  0.79335998  0.14444177    -0.25400
S2210       S  0.57360149  0.77159887  0.10643363    -0.02600
C2211       C  0.58459606  0.75875851  0.11468289    -0.16100
C2212       C  0.58134474  0.75621826  0.12919148    -0.14100
H2213       H  0.56817803  0.75808929  0.15631111     0.21300
H2214       H  0.54946734  0.79081513  0.11687970     0.17300
H2215       H  0.53141068  0.80141466  0.13777456     0.19900
H2216       H  0.58725689  0.74875237  0.13618031     0.13200
C2217       C  0.57204642  0.75523641  0.06290293     0.17100
C2218       C  0.56412123  0.76097228  0.05115340    -0.32000
C2219       C  0.55168157  0.75334607  0.04654308     0.21500
C2220       C  0.54743417  0.74044601  0.05319364     0.03700
C2221       C  0.55520015  0.73484276  0.06513277    -0.21700
C2222       C  0.56753231  0.74258031  0.06987280     0.12800
S2223       S  0.58760059  0.76274038  0.06990226    -0.05400
C2224       C  0.58776354  0.74890747  0.08254767    -0.08800
C2225       C  0.57648125  0.73895794  0.08131436    -0.25400
S2226       S  0.53242114  0.73250069  0.04551443    -0.02600
C2227       C  0.53163564  0.74689565  0.03344707    -0.16100
C2228       C  0.54253971  0.75720678  0.03533137    -0.14100
H2229       H  0.56753438  0.77092599  0.04580264     0.21300
H2230       H  0.55181519  0.72486161  0.07045081     0.17300
H2231       H  0.57500911  0.72959387  0.08834226     0.19900
H2232       H  0.54383893  0.76688564  0.02869674     0.13200
C2233       C  0.35157664  0.70907311  0.05485610     0.17100
C2234       C  0.35365720  0.71773227  0.06722196    -0.32000
C2235       C  0.36801017  0.71993874  0.07196004     0.21500
C2236       C  0.37983621  0.71400594  0.06464673     0.03700
C2237       C  0.37775542  0.70526776  0.05228565    -0.21700
C2238       C  0.36335611  0.70284724  0.04767797     0.12800
S2239       S  0.33499113  0.70506637  0.04743926    -0.05400
C2240       C  0.34398860  0.69462349  0.03471418    -0.08800
C2241       C  0.35903996  0.69440473  0.03615732    -0.25400
S2242       S  0.39634472  0.71779279  0.07245762    -0.02600
C2243       C  0.38714554  0.72723729  0.08586557    -0.16100
C2244       C  0.37212833  0.72748919  0.08409532    -0.14100
H2245       H  0.34447798  0.72241040  0.07300284     0.21300
H2246       H  0.38692169  0.70040560  0.04664062     0.17300
H2247       H  0.36641721  0.68850843  0.02906127     0.19900
H2248       H  0.36454787  0.73268423  0.09151435     0.13200
C2249       C  0.44015692  0.76767332  0.12772392     0.17100
C2250       C  0.45006433  0.77912890  0.12982988    -0.32000
C2251       C  0.45663893  0.78037214  0.14357420     0.21500
C2252       C  0.45357558  0.77058429  0.15467642     0.03700
C2253       C  0.44358774  0.75923104  0.15261104    -0.21700
C2254       C  0.43695347  0.75805682  0.13892304     0.12800
S2255       S  0.43068188  0.76448955  0.11202617    -0.05400
C2256       C  0.42216821  0.75018622  0.12073963    -0.08800
C2257       C  0.42662810  0.74804672  0.13499527    -0.25400
S2258       S  0.46298537  0.77363904  0.17039500    -0.02600
C2259       C  0.47109473  0.78833849  0.16198746    -0.16100
C2260       C  0.46660699  0.79069794  0.14775897    -0.14100
H2261       H  0.45249323  0.78676279  0.12116862     0.21300
H2262       H  0.44106806  0.75166338  0.16130661     0.17300
H2263       H  0.42224554  0.73982030  0.14223688     0.19900
H2264       H  0.47064420  0.79930846  0.14076812     0.13200
C2265       C  0.43932292  0.73660855  0.07382194     0.17100
C2266       C  0.45191293  0.73277609  0.06607199    -0.32000
C2267       C  0.45587219  0.74153654  0.05421478     0.21500
C2268       C  0.44785401  0.75379547  0.05039106     0.03700
C2269       C  0.43511178  0.75754154  0.05803787    -0.21700
C2270       C  0.43097325  0.74858239  0.06974621     0.12800
S2271       S  0.43290275  0.72741609  0.08865131    -0.05400
C2272       C  0.41863174  0.73958198  0.08913542    -0.08800
C2273       C  0.41891072  0.75026899  0.07847251    -0.25400
S2274       S  0.45481150  0.76317219  0.03584959    -0.02600
C2275       C  0.46834652  0.75014464  0.03467958    -0.16100
C2276       C  0.46753173  0.73930217  0.04514666    -0.14100
H2277       H  0.45832458  0.72332751  0.06912348     0.21300
H2278       H  0.42869245  0.76697867  0.05497240     0.17300
H2279       H  0.41088831  0.75887509  0.07737209     0.19900
H2280       H  0.47510369  0.73026760  0.04607371     0.13200
C2281       C  0.62589200  0.72143875  0.93201631     0.17100
C2282       C  0.63804292  0.71799669  0.94061086    -0.32000
C2283       C  0.63726615  0.70545333  0.94929802     0.21500
C2284       C  0.62492907  0.69671128  0.94944261     0.03700
C2285       C  0.61269119  0.70024842  0.94095992    -0.21700
C2286       C  0.61345718  0.71282875  0.93227921     0.12800
S2287       S  0.62526245  0.73541697  0.91979716    -0.05400
C2288       C  0.60802382  0.72971558  0.91504309    -0.08800
C2289       C  0.60304849  0.71765796  0.92266147    -0.25400
S2290       S  0.62628620  0.68182756  0.96055026    -0.02600
C2291       C  0.64360440  0.68753220  0.96516958    -0.16100
C2292       C  0.64801144  0.70025674  0.95830272    -0.14100
H2293       H  0.64779077  0.72465852  0.94032727     0.21300
H2294       H  0.60308237  0.69338333  0.94096560     0.17300
H2295       H  0.59284921  0.71210791  0.92051734     0.19900
H2296       H  0.65848524  0.70548141  0.95987982     0.13200
C2297       C  0.55468790  0.75739938  0.86166107     0.17100
C2298       C  0.54642087  0.76177486  0.84961633    -0.32000
C2299       C  0.53820873  0.77460072  0.85092946     0.21500
C2300       C  0.53802341  0.78262690  0.86373098     0.03700
C2301       C  0.54602116  0.77803872  0.87592304    -0.21700
C2302       C  0.55442544  0.76529868  0.87454500     0.12800
S2303       S  0.56676914  0.74327176  0.86154131    -0.05400
C2304       C  0.57161282  0.74803223  0.87902730    -0.08800
C2305       C  0.56399182  0.75982970  0.88466074    -0.25400
S2306       S  0.52792326  0.79828799  0.86280501    -0.02600
C2307       C  0.52393291  0.79393149  0.84499089    -0.16100
C2308       C  0.53006889  0.78097111  0.84018290    -0.14100
H2309       H  0.54681024  0.75574756  0.83947514     0.21300
H2310       H  0.54609263  0.78438982  0.88586963     0.17300
H2311       H  0.56616255  0.76487415  0.89509531     0.19900
H2312       H  0.52876688  0.77651544  0.82933447     0.13200
C2313       C  0.55624879  0.73667398  0.92790770     0.17100
C2314       C  0.54428764  0.73253059  0.93647107    -0.32000
C2315       C  0.54094102  0.74114527  0.94865795     0.21500
C2316       C  0.54890312  0.75356652  0.95198326     0.03700
C2317       C  0.56097209  0.75763787  0.94350418    -0.21700
C2318       C  0.56454711  0.74881102  0.93151672     0.12800
S2319       S  0.56209274  0.72759436  0.91272393    -0.05400
C2320       C  0.57606922  0.74002494  0.91151535    -0.08800
C2321       C  0.57609385  0.75070139  0.92218689    -0.25400
S2322       S  0.54278344  0.76276074  0.96700647    -0.02600
C2323       C  0.52966957  0.74946459  0.96909247    -0.16100
C2324       C  0.52998995  0.73865278  0.95852556    -0.14100
H2325       H  0.53793791  0.72293449  0.93381912     0.21300
H2326       H  0.56736244  0.76719374  0.94620023     0.17300
H2327       H  0.58405459  0.75938266  0.92296218     0.19900
H2328       H  0.52251807  0.72951967  0.95802895     0.13200
C2329       C  0.37939650  0.72012615  0.94308516     0.17100
C2330       C  0.37724162  0.70875859  0.95309967    -0.32000
C2331       C  0.36347106  0.70766224  0.95972609     0.21500
C2332       C  0.35251444  0.71771306  0.95687813     0.03700
C2333       C  0.35471996  0.72914479  0.94701757    -0.21700
C2334       C  0.36829222  0.72995345  0.94005107     0.12800
S2335       S  0.39465445  0.72237523  0.93259468    -0.05400
C2336       C  0.38575261  0.73638031  0.92375364    -0.08800
C2337       C  0.37188804  0.73928794  0.92900205    -0.25400
S2338       S  0.33649231  0.71436372  0.96570782    -0.02600
C2339       C  0.34447197  0.69903751  0.97310240    -0.16100
C2340       C  0.35889868  0.69686980  0.96902546    -0.14100
H2341       H  0.38571741  0.70079259  0.95519669     0.21300
H2342       H  0.34603890  0.73675050  0.94446559     0.17300
H2343       H  0.36448930  0.74724700  0.92435282     0.19900
H2344       H  0.36564826  0.68785810  0.97261997     0.13200
C2345       C  0.43278226  0.76406153  0.86487558     0.17100
C2346       C  0.44095571  0.76723845  0.85237784    -0.32000
C2347       C  0.44870732  0.78041892  0.85212880     0.21500
C2348       C  0.44831461  0.79004047  0.86377900     0.03700
C2349       C  0.44026426  0.78678626  0.87634910    -0.21700
C2350       C  0.43258611  0.77355457  0.87664392     0.12800
S2351       S  0.42180524  0.74917363  0.86685726    -0.05400
C2352       C  0.41707969  0.75568072  0.88380587    -0.08800
C2353       C  0.42372273  0.76868651  0.88765148    -0.25400
S2354       S  0.45848990  0.80544671  0.86133160    -0.02600
C2355       C  0.46350949  0.79876479  0.84451113    -0.16100
C2356       C  0.45740006  0.78536436  0.84103744    -0.14100
H2357       H  0.44113562  0.75983553  0.84318464     0.21300
H2358       H  0.43993365  0.79427678  0.88546565     0.17300
H2359       H  0.42148775  0.77468143  0.89756994     0.19900
H2360       H  0.45946522  0.77939973  0.83106377     0.13200
C2361       C  0.43821059  0.74344434  0.93054496     0.17100
C2362       C  0.45110698  0.73913062  0.93754528    -0.32000
C2363       C  0.45478589  0.74617192  0.95060838     0.21500
C2364       C  0.44622240  0.75729180  0.95628295     0.03700
C2365       C  0.43319994  0.76146176  0.94939980    -0.21700
C2366       C  0.42933736  0.75417542  0.93651409     0.12800
S2367       S  0.43175306  0.73608228  0.91469885    -0.05400
C2368       C  0.41677289  0.74727024  0.91641405    -0.08800
C2369       C  0.41688708  0.75630721  0.92849748    -0.25400
S2370       S  0.45288725  0.76478552  0.97199734    -0.02600
C2371       C  0.46706976  0.75246518  0.97115095    -0.16100
C2372       C  0.46665584  0.74321847  0.95921283    -0.14100
H2373       H  0.45790865  0.73056186  0.93307663     0.21300
H2374       H  0.42632491  0.76992906  0.95394715     0.17300
H2375       H  0.40827517  0.76390962  0.93126701     0.19900
H2376       H  0.47469784  0.73486492  0.95690330     0.13200
C2377       C  0.63371072  0.04329074  0.28879336     0.17100
C2378       C  0.62092157  0.05129749  0.28629909    -0.32000
C2379       C  0.62058122  0.06042184  0.27405567     0.21500
C2380       C  0.63239753  0.06141463  0.26466217     0.03700
C2381       C  0.64502838  0.05316532  0.26697243    -0.21700
C2382       C  0.64543364  0.04419423  0.27928733     0.12800
S2383       S  0.63665073  0.03224095  0.30344365    -0.05400
C2384       C  0.65383554  0.02880546  0.29664000    -0.08800
C2385       C  0.65699429  0.03585391  0.28369523    -0.25400
S2386       S  0.63058024  0.07426144  0.25140828    -0.02600
C2387       C  0.61372782  0.07832062  0.25855178    -0.16100
C2388       C  0.60968868  0.07000841  0.27045846    -0.14100
H2389       H  0.61182673  0.05078678  0.29380787     0.21300
H2390       H  0.65433557  0.05409303  0.25976830     0.17300
H2391       H  0.66722962  0.03498964  0.27786387     0.19900
H2392       H  0.59986854  0.07167246  0.27679624     0.13200
C2393       C  0.55801039  0.12933670  0.23197304     0.17100
C2394       C  0.54867933  0.14089855  0.22853962    -0.32000
C2395       C  0.54189710  0.14065492  0.21490349     0.21500
C2396       C  0.54409698  0.12932263  0.20513395     0.03700
C2397       C  0.55333424  0.11763414  0.20863859    -0.21700
C2398       C  0.56025759  0.11795319  0.22226380     0.12800
S2399       S  0.56840725  0.12852002  0.24730424    -0.05400
C2400       C  0.57588782  0.11266944  0.24061342    -0.08800
C2401       C  0.57046243  0.10824185  0.22725226    -0.25400
S2402       S  0.53486664  0.13125108  0.18908119    -0.02600
C2403       C  0.52805488  0.14750391  0.19567147    -0.16100
C2404       C  0.53276004  0.15111446  0.20952880    -0.14100
H2405       H  0.54707723  0.14989959  0.23601887     0.21300
H2406       H  0.55527608  0.10885467  0.20098235     0.17300
H2407       H  0.57460222  0.09913869  0.22098623     0.19900
H2408       H  0.52952512  0.16081825  0.21545028     0.13200
C2409       C  0.56705021  0.06020583  0.24194262     0.17100
C2410       C  0.55928831  0.04856863  0.23577901    -0.32000
C2411       C  0.54911254  0.04133522  0.24460069     0.21500
C2412       C  0.54688578  0.04537241  0.25898618     0.03700
C2413       C  0.55452083  0.05712015  0.26511079    -0.21700
C2414       C  0.56456187  0.06447532  0.25623248     0.12800
S2415       S  0.58001012  0.07023891  0.23309104    -0.05400
C2416       C  0.58176463  0.08047059  0.24868223    -0.08800
C2417       C  0.57294969  0.07621889  0.26014046    -0.25400
S2418       S  0.53426377  0.03502745  0.26793901    -0.02600
C2419       C  0.53174542  0.02533868  0.25205066    -0.16100
C2420       C  0.54036647  0.02991185  0.24052168    -0.14100
H2421       H  0.56109135  0.04530406  0.22459150     0.21300
H2422       H  0.55269838  0.06039717  0.27629190     0.17300
H2423       H  0.57280051  0.08139546  0.27073558     0.19900
H2424       H  0.54023691  0.02513424  0.22973675     0.13200
C2425       C  0.37357583  0.05399891  0.27371188     0.17100
C2426       C  0.37095077  0.04390062  0.28488922    -0.32000
C2427       C  0.35675432  0.03829259  0.28620396     0.21500
C2428       C  0.34570158  0.04246273  0.27676643     0.03700
C2429       C  0.34828746  0.05265360  0.26571848    -0.21700
C2430       C  0.36242650  0.05831005  0.26446252     0.12800
S2431       S  0.38989768  0.06243700  0.27045240    -0.05400
C2432       C  0.38149212  0.07202272  0.25664805    -0.08800
C2433       C  0.36689158  0.06864891  0.25471203    -0.25400
S2434       S  0.32939528  0.03399823  0.27975696    -0.02600
C2435       C  0.33748787  0.02477425  0.29395824    -0.16100
C2436       C  0.35205481  0.02823830  0.29620739    -0.14100
H2437       H  0.37956879  0.04058600  0.29224487     0.21300
H2438       H  0.33965015  0.05603334  0.25841290     0.17300
H2439       H  0.35978770  0.07384724  0.24684082     0.19900
H2440       H  0.35894480  0.02334976  0.30445414     0.13200
C2441       C  0.43753931  0.11296353  0.21850379     0.17100
C2442       C  0.44852919  0.11529624  0.20810646    -0.32000
C2443       C  0.45405710  0.12953301  0.20669851     0.21500
C2444       C  0.44916181  0.14080317  0.21553112     0.03700
C2445       C  0.43827396  0.13845721  0.22591974    -0.21700
C2446       C  0.43249805  0.12437446  0.22704993     0.12800
S2447       S  0.42847703  0.09685873  0.22120562    -0.05400
C2448       C  0.41759594  0.10577948  0.23369374    -0.08800
C2449       C  0.42111327  0.12032594  0.23573436    -0.25400
S2450       S  0.45710064  0.15727365  0.21221565    -0.02600
C2451       C  0.46690128  0.14905931  0.19849338    -0.16100
C2452       C  0.46423135  0.13424489  0.19679374    -0.14100
H2453       H  0.45230326  0.10652159  0.20115989     0.21300
H2454       H  0.43420723  0.14732449  0.23258426     0.17300
H2455       H  0.41524623  0.12772744  0.24283332     0.19900
H2456       H  0.46948210  0.12731703  0.18880045     0.13200
C2457       C  0.42860111  0.05404815  0.23995806     0.17100
C2458       C  0.43645557  0.04187652  0.23503296    -0.32000
C2459       C  0.44892775  0.03778734  0.24288753     0.21500
C2460       C  0.45325912  0.04530631  0.25526275     0.03700
C2461       C  0.44556560  0.05765172  0.26003562    -0.21700
C2462       C  0.43322379  0.06188802  0.25204319     0.12800
S2463       S  0.41307940  0.06064085  0.23201842    -0.05400
C2464       C  0.41308736  0.07425731  0.24489906    -0.08800
C2465       C  0.42440465  0.07365903  0.25484165    -0.25400
S2466       S  0.46829264  0.03815599  0.26365497    -0.02600
C2467       C  0.46897123  0.02517294  0.25011086    -0.16100
C2468       C  0.45804285  0.02633821  0.23975569    -0.14100
H2469       H  0.43299009  0.03584876  0.22550148     0.21300
H2470       H  0.44902585  0.06366845  0.26957521     0.17300
H2471       H  0.42601274  0.08138793  0.26360986     0.19900
H2472       H  0.45670682  0.01903580  0.23057867     0.13200
C2473       C  0.62663617  0.93804598  0.26966037     0.17100
C2474       C  0.62793314  0.94940989  0.27984968    -0.32000
C2475       C  0.64205799  0.95423658  0.28334195     0.21500
C2476       C  0.65428092  0.94819052  0.27676947     0.03700
C2477       C  0.65298125  0.93683729  0.26667816    -0.21700
C2478       C  0.63892476  0.93189979  0.26336254     0.12800
S2479       S  0.61062228  0.93001682  0.26443244    -0.05400
C2480       C  0.62066081  0.91807010  0.25388356    -0.08800
C2481       C  0.63557868  0.92054298  0.25432117    -0.25400
S2482       S  0.67040489  0.95581632  0.28193724    -0.02600
C2483       C  0.66067336  0.96715549  0.29328957    -0.16100
C2484       C  0.64569096  0.96506627  0.29303324    -0.14100
H2485       H  0.61839009  0.95415048  0.28494536     0.21300
H2486       H  0.66253319  0.93198201  0.26169910     0.17300
H2487       H  0.64365994  0.91402871  0.24867773     0.19900
H2488       H  0.63789741  0.97141164  0.29924202     0.13200
C2489       C  0.56650143  0.87316221  0.21744966     0.17100
C2490       C  0.55528701  0.87000982  0.20754743    -0.32000
C2491       C  0.54895818  0.85607474  0.20818328     0.21500
C2492       C  0.55346296  0.84580975  0.21833215     0.03700
C2493       C  0.56471647  0.84892559  0.22814958    -0.21700
C2494       C  0.57114879  0.86276775  0.22739219     0.12800
S2495       S  0.57593550  0.88923636  0.21822021    -0.05400
C2496       C  0.58637681  0.88173930  0.23191494    -0.08800
C2497       C  0.58258031  0.86759785  0.23564243    -0.25400
S2498       S  0.54432792  0.82961928  0.21749606    -0.02600
C2499       C  0.53442300  0.83664445  0.20317995    -0.16100
C2500       C  0.53807545  0.85083420  0.19937731    -0.14100
H2501       H  0.55174718  0.87800532  0.19961734     0.21300
H2502       H  0.56839058  0.84086435  0.23595462     0.17300
H2503       H  0.58811078  0.86108738  0.24379496     0.19900
H2504       H  0.53298713  0.85700531  0.19069632     0.13200
C2505       C  0.57234074  0.93269397  0.23606002     0.17100
C2506       C  0.56373226  0.94430533  0.23099461    -0.32000
C2507       C  0.55157875  0.94837734  0.23937676     0.21500
C2508       C  0.54818177  0.94124043  0.25225223     0.03700
C2509       C  0.55655821  0.92940284  0.25712151    -0.21700
C2510       C  0.56867053  0.92530923  0.24873592     0.12800
S2511       S  0.58790919  0.92649597  0.22784242    -0.05400
C2512       C  0.58925530  0.91374641  0.24152261    -0.08800
C2513       C  0.57827119  0.91426083  0.25182593    -0.25400
S2514       S  0.53361313  0.94843295  0.26135881    -0.02600
C2515       C  0.53191349  0.96107680  0.24758370    -0.16100
C2516       C  0.54212508  0.95965270  0.23652165    -0.14100
H2517       H  0.56651922  0.95006410  0.22108758     0.21300
H2518       H  0.55389639  0.92378595  0.26714397     0.17300
H2519       H  0.57750475  0.90704549  0.26112397     0.19900
H2520       H  0.54285230  0.96675664  0.22712958     0.13200
C2521       C  0.34888562  0.94685002  0.27313748     0.17100
C2522       C  0.35167290  0.93624578  0.26251006    -0.32000
C2523       C  0.36568912  0.93012629  0.26208883     0.21500
C2524       C  0.37662934  0.93472212  0.27144081     0.03700
C2525       C  0.37391267  0.94552244  0.28191007    -0.21700
C2526       C  0.35973117  0.95124467  0.28270548     0.12800
S2527       S  0.33226729  0.95468262  0.27622746    -0.05400
C2528       C  0.33988989  0.96363653  0.29085977    -0.08800
C2529       C  0.35462546  0.96089100  0.29291137    -0.25400
S2530       S  0.39254808  0.92513771  0.26988882    -0.02600
C2531       C  0.38423072  0.91454112  0.25679649    -0.16100
C2532       C  0.37000181  0.91859591  0.25365329    -0.14100
H2533       H  0.34311659  0.93246868  0.25531151     0.21300
H2534       H  0.38229271  0.94883453  0.28952963     0.17300
H2535       H  0.36120106  0.96555103  0.30153025     0.19900
H2536       H  0.36294231  0.91293645  0.24607432     0.13200
C2537       C  0.44068133  0.86964209  0.22528520     0.17100
C2538       C  0.45300825  0.86762540  0.21650626    -0.32000
C2539       C  0.45779541  0.85328252  0.21417640     0.21500
C2540       C  0.45082801  0.84146590  0.22054510     0.03700
C2541       C  0.43844322  0.84348398  0.22926847    -0.21700
C2542       C  0.43351003  0.85782854  0.23138684     0.12800
S2543       S  0.43275978  0.88611082  0.22884543    -0.05400
C2544       C  0.41945483  0.87702350  0.23851314    -0.08800
C2545       C  0.42132884  0.86198852  0.23895862    -0.25400
S2546       S  0.45851163  0.82495404  0.21653995    -0.02600
C2547       C  0.47100141  0.83408008  0.20591016    -0.16100
C2548       C  0.46929501  0.84909019  0.20563058    -0.14100
H2549       H  0.45849019  0.87681529  0.21152260     0.21300
H2550       H  0.43280180  0.83427845  0.23404289     0.17300
H2551       H  0.41396809  0.85444151  0.24426447     0.19900
H2552       H  0.47616903  0.85652989  0.19956981     0.13200
C2553       C  0.43672121  0.92389836  0.25523434     0.17100
C2554       C  0.44880960  0.93138750  0.26081079    -0.32000
C2555       C  0.45413502  0.94325463  0.25278241     0.21500
C2556       C  0.44784940  0.94738214  0.23967445     0.03700
C2557       C  0.43558697  0.94006935  0.23422561    -0.21700
C2558       C  0.43014045  0.92831941  0.24234938     0.12800
S2559       S  0.42886232  0.90898888  0.26316849    -0.05400
C2560       C  0.41644314  0.90898882  0.24914223    -0.08800
C2561       C  0.41832459  0.91986622  0.23888113    -0.25400
S2562       S  0.45632951  0.96169225  0.23130273    -0.02600
C2563       C  0.46824661  0.96232230  0.24578801    -0.16100
C2564       C  0.46574236  0.95191516  0.25643725    -0.14100
H2565       H  0.45388124  0.92807306  0.27093249     0.21300
H2566       H  0.43055197  0.94335183  0.22407548     0.17300
H2567       H  0.41152489  0.92133062  0.22935599     0.19900
H2568       H  0.47218211  0.95065720  0.26624380     0.13200
C2569       C  0.27775158  0.05779071  0.61317243     0.17100
C2570       C  0.28969619  0.04846790  0.61548949    -0.32000
C2571       C  0.29164587  0.04278900  0.62956498     0.21500
C2572       C  0.28199753  0.04606866  0.64073465     0.03700
C2573       C  0.27012075  0.05538522  0.63842862    -0.21700
C2574       C  0.26830817  0.06121469  0.62445655     0.12800
S2575       S  0.27384998  0.06649882  0.59716798    -0.05400
C2576       C  0.25953568  0.07503388  0.60589614    -0.08800
C2577       C  0.25788895  0.07108224  0.62035974    -0.25400
S2578       S  0.28595570  0.03790119  0.65691902    -0.02600
C2579       C  0.30090379  0.03005779  0.64867098    -0.16100
C2580       C  0.30263756  0.03366317  0.63409928    -0.14100
H2581       H  0.29723494  0.04591862  0.60677547     0.21300
H2582       H  0.26270511  0.05811158  0.64719797     0.17300
H2583       H  0.24978897  0.07562662  0.62765754     0.19900
H2584       H  0.31126291  0.02957949  0.62714329     0.13200
C2585       C  0.21834701  0.11503155  0.55141559     0.17100
C2586       C  0.20771687  0.11695681  0.54058741    -0.32000
C2587       C  0.20581440  0.13107339  0.53493122     0.21500
C2588       C  0.21439161  0.14264672  0.53954176     0.03700
C2589       C  0.22502808  0.14070799  0.55029787    -0.21700
C2590       C  0.22664937  0.12671495  0.55621983     0.12800
S2591       S  0.22164884  0.09907491  0.56050129    -0.05400
C2592       C  0.23408281  0.10837442  0.57108596    -0.08800
C2593       C  0.23563860  0.12296949  0.56749613    -0.25400
S2594       S  0.21043260  0.15891351  0.53141960    -0.02600
C2595       C  0.19679984  0.15015900  0.52195080    -0.16100
C2596       C  0.19561435  0.13534687  0.52486324    -0.14100
H2597       H  0.20096988  0.10794961  0.53701569     0.21300
H2598       H  0.23151066  0.14979658  0.55414768     0.17300
H2599       H  0.24264989  0.13057219  0.57319397     0.19900
H2600       H  0.18775619  0.12810263  0.51984736     0.13200
C2601       C  0.25280930  0.06250264  0.55422057     0.17100
C2602       C  0.25801657  0.05474019  0.54214344    -0.32000
C2603       C  0.24955487  0.04308230  0.53701751     0.21500
C2604       C  0.23634696  0.03946845  0.54343541     0.03700
C2605       C  0.23123352  0.04709089  0.55564942    -0.21700
C2606       C  0.23983355  0.05857197  0.56094920     0.12800
S2607       S  0.26131887  0.07719951  0.56188250    -0.05400
C2608       C  0.24747519  0.07769228  0.57449392    -0.08800
C2609       C  0.23678820  0.06720288  0.57274576    -0.25400
S2610       S  0.22752235  0.02522898  0.53529947    -0.02600
C2611       C  0.24198480  0.02387722  0.52339893    -0.16100
C2612       C  0.25292113  0.03406523  0.52559795    -0.14100
H2613       H  0.26822216  0.05765012  0.53697579     0.21300
H2614       H  0.22102101  0.04418706  0.56080730     0.17300
H2615       H  0.22722365  0.06617694  0.57957997     0.19900
H2616       H  0.26278097  0.03484944  0.51915179     0.13200
C2617       C  0.28246666  0.03618533  0.35968055     0.17100
C2618       C  0.27825349  0.04496850  0.37146639    -0.32000
C2619       C  0.26512671  0.05276946  0.37017817     0.21500
C2620       C  0.25654268  0.05176266  0.35777866     0.03700
C2621       C  0.26059670  0.04277419  0.34616428    -0.21700
C2622       C  0.27376210  0.03513527  0.34737774     0.12800
S2623       S  0.29834159  0.02642632  0.35865831    -0.05400
C2624       C  0.29312008  0.02093116  0.34147927    -0.08800
C2625       C  0.27977969  0.02637809  0.33694701    -0.25400
S2626       S  0.24187432  0.06317919  0.35758184    -0.02600
C2627       C  0.24728818  0.06937503  0.37440317    -0.16100
C2628       C  0.25974253  0.06278165  0.37987871    -0.14100
H2629       H  0.28509691  0.04600858  0.38102031     0.21300
H2630       H  0.25401556  0.04214172  0.33639118     0.17300
H2631       H  0.27477061  0.02412310  0.32650526     0.19900
H2632       H  0.26517947  0.06592127  0.38985412     0.13200
C2633       C  0.21272627  0.11305055  0.43008184     0.17100
C2634       C  0.20310166  0.11551614  0.44166334    -0.32000
C2635       C  0.20204969  0.12978489  0.44707310     0.21500
C2636       C  0.21045024  0.14103943  0.44146373     0.03700
C2637       C  0.22008931  0.13856436  0.42990131    -0.21700
C2638       C  0.22088954  0.12436691  0.42428004     0.12800
S2639       S  0.21490511  0.09675026  0.42135792    -0.05400
C2640       C  0.22672889  0.10533283  0.40958121    -0.08800
C2641       C  0.22890528  0.12000938  0.41250662    -0.25400
S2642       S  0.20755177  0.15757200  0.44952621    -0.02600
C2643       C  0.19463913  0.14928771  0.46033331    -0.16100
C2644       C  0.19288796  0.13447643  0.45786433    -0.14100
H2645       H  0.19648267  0.10677625  0.44604182     0.21300
H2646       H  0.22645258  0.14737443  0.42528915     0.17300
H2647       H  0.23569600  0.12721637  0.40608179     0.19900
H2648       H  0.18532597  0.12751551  0.46367041     0.13200
C2649       C  0.24952296  0.04224026  0.44372644     0.17100
C2650       C  0.25465499  0.05394683  0.43534045    -0.32000
C2651       C  0.24537669  0.05955681  0.42455999     0.21500
C2652       C  0.23167776  0.05361565  0.42206472     0.03700
C2653       C  0.22646173  0.04206805  0.43061493    -0.21700
C2654       C  0.23566184  0.03659888  0.44154035     0.12800
S2655       S  0.25918769  0.03375767  0.45718123    -0.05400
C2656       C  0.24429239  0.02267970  0.46012208    -0.08800
C2657       C  0.23253657  0.02545924  0.45102405    -0.25400
S2658       S  0.22231451  0.06153565  0.40805046    -0.02600
C2659       C  0.23682092  0.07322679  0.40590767    -0.16100
C2660       C  0.24833636  0.07097179  0.41537150    -0.14100
H2661       H  0.26541432  0.05846932  0.43712761     0.21300
H2662       H  0.21571787  0.03751922  0.42880398     0.17300
H2663       H  0.22230971  0.01956089  0.45125199     0.19900
H2664       H  0.25832605  0.07725910  0.41539876     0.13200
C2665       C  0.29636496  0.95212353  0.62816939     0.17100
C2666       C  0.29304961  0.94321983  0.61617996    -0.32000
C2667       C  0.28078958  0.93411754  0.61724572     0.21500
C2668       C  0.27224103  0.93390960  0.62970731     0.03700
C2669       C  0.27543154  0.94294871  0.64159001    -0.21700
C2670       C  0.28769075  0.95200461  0.64053868     0.12800
S2671       S  0.31096764  0.96363502  0.62922884    -0.05400
C2672       C  0.30527376  0.96839998  0.64649102    -0.08800
C2673       C  0.29271835  0.96133966  0.65107062    -0.25400
S2674       S  0.25869063  0.92120338  0.62947997    -0.02600
C2675       C  0.26449176  0.91613738  0.61237697    -0.16100
C2676       C  0.27626881  0.92402624  0.60714746    -0.14100
H2677       H  0.29988034  0.94318862  0.60655864     0.21300
H2678       H  0.26883296  0.94268695  0.65136919     0.17300
H2679       H  0.28753377  0.96295423  0.66154610     0.19900
H2680       H  0.28185020  0.92180951  0.59699741     0.13200
C2681       C  0.23598548  0.86216908  0.56019447     0.17100
C2682       C  0.23235119  0.85033679  0.55124716    -0.32000
C2683       C  0.21869415  0.85059429  0.54438832     0.21500
C2684       C  0.20906786  0.86211977  0.54630752     0.03700
C2685       C  0.21277662  0.87404737  0.55512946    -0.21700
C2686       C  0.22645868  0.87380784  0.56197882     0.12800
S2687       S  0.25142936  0.86324897  0.57049543    -0.05400
C2688       C  0.24507166  0.87961920  0.57716387    -0.08800
C2689       C  0.23172481  0.88397861  0.57158657    -0.25400
S2690       S  0.19293983  0.86021901  0.53717557    -0.02600
C2691       C  0.19930452  0.84378778  0.53058808    -0.16100
C2692       C  0.21315552  0.84004639  0.53539304    -0.14100
H2693       H  0.23973112  0.84119473  0.54991142     0.21300
H2694       H  0.20524996  0.88302028  0.55674646     0.17300
H2695       H  0.22573504  0.89352163  0.57515992     0.19900
H2696       H  0.21892508  0.83017697  0.53237207     0.13200
C2697       C  0.25902057  0.92621556  0.55926591     0.17100
C2698       C  0.26349638  0.93359254  0.54667346    -0.32000
C2699       C  0.25406515  0.94416211  0.54088655     0.21500
C2700       C  0.24067689  0.94718035  0.54724827     0.03700
C2701       C  0.23629715  0.93998263  0.56001575    -0.21700
C2702       C  0.24580203  0.92948665  0.56589129     0.12800
S2703       S  0.26867281  0.91259843  0.56755862    -0.05400
C2704       C  0.25492818  0.91155578  0.58024106    -0.08800
C2705       C  0.24344349  0.92113950  0.57808466    -0.25400
S2706       S  0.23061107  0.96000957  0.53816471    -0.02600
C2707       C  0.24473480  0.96151649  0.52586270    -0.16100
C2708       C  0.25651997  0.95246886  0.52871876    -0.14100
H2709       H  0.27383811  0.93111199  0.54153386     0.21300
H2710       H  0.22589580  0.94237017  0.56507585     0.17300
H2711       H  0.23379607  0.92168118  0.58486088     0.19900
H2712       H  0.26632790  0.95192797  0.52216463     0.13200
C2713       C  0.26149472  0.92673579  0.35736069     0.17100
C2714       C  0.26527769  0.93499376  0.34506987    -0.32000
C2715       C  0.27748585  0.94414819  0.34610774     0.21500
C2716       C  0.28554638  0.94508017  0.35884830     0.03700
C2717       C  0.28160279  0.93700841  0.37123765    -0.21700
C2718       C  0.26939658  0.92781430  0.37019048     0.12800
S2719       S  0.24792601  0.91402634  0.35780358    -0.05400
C2720       C  0.25279911  0.91014799  0.37551475    -0.08800
C2721       C  0.26434008  0.91842859  0.38073230    -0.25400
S2722       S  0.30023106  0.95649322  0.35774074    -0.02600
C2723       C  0.29540968  0.96015941  0.33995415    -0.16100
C2724       C  0.28303153  0.95283821  0.33525531    -0.14100
H2725       H  0.25916133  0.93407038  0.33502291     0.21300
H2726       H  0.28793892  0.93765559  0.38116888     0.17300
H2727       H  0.26941180  0.91696830  0.39127275     0.19900
H2728       H  0.27832064  0.95384256  0.32448692     0.13200
C2729       C  0.22761455  0.85919690  0.43252843     0.17100
C2730       C  0.22539226  0.84788847  0.44256226    -0.32000
C2731       C  0.21308025  0.84872585  0.45158402     0.21500
C2732       C  0.20344271  0.86036858  0.45074369     0.03700
C2733       C  0.20578913  0.87181514  0.44084308    -0.21700
C2734       C  0.21808821  0.87094126  0.43175074     0.12800
S2735       S  0.24115865  0.85946232  0.41979956    -0.05400
C2736       C  0.23406683  0.87564581  0.41340016    -0.08800
C2737       C  0.22182497  0.88052071  0.42084684    -0.25400
S2738       S  0.18891136  0.85906499  0.46234324    -0.02600
C2739       C  0.19590573  0.84266426  0.46840376    -0.16100
C2740       C  0.20885270  0.83857193  0.46171809    -0.14100
H2741       H  0.23275787  0.83865222  0.44307117     0.21300
H2742       H  0.19820681  0.88085271  0.44006071     0.17300
H2743       H  0.21547892  0.89002941  0.41788182     0.19900
H2744       H  0.21482376  0.82864542  0.46408482     0.13200
C2745       C  0.23629940  0.92728985  0.42355409     0.17100
C2746       C  0.23045925  0.93875214  0.43182188    -0.32000
C2747       C  0.23908768  0.94451068  0.44304513     0.21500
C2748       C  0.25299369  0.93922251  0.44582327     0.03700
C2749       C  0.25875104  0.92758761  0.43771480    -0.21700
C2750       C  0.25005654  0.92171714  0.42659050     0.12800
S2751       S  0.22761894  0.91897526  0.40933960    -0.05400
C2752       C  0.24255463  0.90773769  0.40771763    -0.08800
C2753       C  0.25365291  0.91032668  0.41758394    -0.25400
S2754       S  0.26192121  0.94810894  0.45953779    -0.02600
C2755       C  0.24663897  0.95885921  0.46174919    -0.16100
C2756       C  0.23532006  0.95567394  0.45225705    -0.14100
H2757       H  0.21967429  0.94302605  0.42957658     0.21300
H2758       H  0.26954685  0.92333381  0.43994380     0.17300
H2759       H  0.26375377  0.90421513  0.41807881     0.19900
H2760       H  0.22496898  0.96137593  0.45196964     0.13200
C2761       C  0.06156318  0.72055080  0.62590884     0.17100
C2762       C  0.05007010  0.71059485  0.62749314    -0.32000
C2763       C  0.04366619  0.70932198  0.64131315     0.21500
C2764       C  0.04832725  0.71774421  0.65296682     0.03700
C2765       C  0.05985850  0.72761312  0.65140261    -0.21700
C2766       C  0.06639929  0.72871830  0.63766445     0.12800
S2767       S  0.07111765  0.72343294  0.61019903    -0.05400
C2768       C  0.08186434  0.73559336  0.61966946    -0.08800
C2769       C  0.07809428  0.73727679  0.63417103    -0.25400
S2770       S  0.03902119  0.71479336  0.66877298    -0.02600
C2771       C  0.02889073  0.70187587  0.65967695    -0.16100
C2772       C  0.03255888  0.70009293  0.64513428    -0.14100
H2773       H  0.04638787  0.70402865  0.61840755     0.21300
H2774       H  0.06366057  0.73405018  0.66053187     0.17300
H2775       H  0.08378585  0.74424190  0.64181522     0.19900
H2776       H  0.02729703  0.69254738  0.63773671     0.13200
C2777       C  0.12311628  0.77570679  0.56616099     0.17100
C2778       C  0.12477931  0.78628585  0.55526528    -0.32000
C2779       C  0.13851482  0.78750671  0.54863632     0.21500
C2780       C  0.15001694  0.77846572  0.55252244     0.03700
C2781       C  0.14836765  0.76794293  0.56345401    -0.21700
C2782       C  0.13470487  0.76686300  0.57021490     0.12800
S2783       S  0.10749366  0.77276722  0.57584326    -0.05400
C2784       C  0.11673551  0.75960332  0.58558351    -0.08800
C2785       C  0.13113232  0.75767345  0.58140069    -0.25400
S2786       S  0.16573576  0.78150503  0.54304197    -0.02600
C2787       C  0.15680620  0.79526944  0.53388193    -0.16100
C2788       C  0.14237511  0.79724682  0.53799351    -0.14100
H2789       H  0.11581187  0.79334313  0.55219075     0.21300
H2790       H  0.15737575  0.76098684  0.56663855     0.17300
H2791       H  0.13865254  0.75007503  0.58643530     0.19900
H2792       H  0.13506251  0.80528088  0.53334121     0.13200
C2793       C  0.05679019  0.73891754  0.54842384     0.17100
C2794       C  0.06930564  0.73432119  0.55587105    -0.32000
C2795       C  0.07325651  0.74200495  0.56845182     0.21500
C2796       C  0.06503120  0.75367558  0.57353481     0.03700
C2797       C  0.05269379  0.75850133  0.56587314    -0.21700
C2798       C  0.04883583  0.75089954  0.55316973     0.12800
S2799       S  0.04993504  0.73067372  0.53323735    -0.05400
C2800       C  0.03642011  0.74371517  0.53303021    -0.08800
C2801       C  0.03722435  0.75385744  0.54420945    -0.25400
S2802       S  0.07127733  0.76106874  0.58945728    -0.02600
C2803       C  0.08523547  0.74851256  0.58893815    -0.16100
C2804       C  0.08500709  0.73910759  0.57718370    -0.14100
H2805       H  0.07562260  0.72507410  0.55209117     0.21300
H2806       H  0.04632516  0.76769287  0.56969974     0.17300
H2807       H  0.02960677  0.76276019  0.54579321     0.19900
H2808       H  0.09291703  0.73053346  0.57528905     0.13200
C2809       C  0.06887326  0.70884869  0.38038238     0.17100
C2810       C  0.05711393  0.69924654  0.37857763    -0.32000
C2811       C  0.05193926  0.69697771  0.36437897     0.21500
C2812       C  0.05805340  0.70411445  0.35254438     0.03700
C2813       C  0.06984090  0.71363691  0.35434487    -0.21700
C2814       C  0.07511731  0.71575271  0.36850254     0.12800
S2815       S  0.07712548  0.71270940  0.39659987    -0.05400
C2816       C  0.08929575  0.72355635  0.38724795    -0.08800
C2817       C  0.08680174  0.72416691  0.37236157    -0.25400
S2818       S  0.04996658  0.70028052  0.33627594    -0.02600
C2819       C  0.03832491  0.68878031  0.34546545    -0.16100
C2820       C  0.04067404  0.68801877  0.36035361    -0.14100
H2821       H  0.05229593  0.69370215  0.38780528     0.21300
H2822       H  0.07474147  0.71909235  0.34510513     0.17300
H2823       H  0.09340346  0.73022384  0.36468370     0.19900
H2824       H  0.03427609  0.68152885  0.36784957     0.13200
C2825       C  0.14037515  0.75679187  0.43988884     0.17100
C2826       C  0.15186903  0.76176998  0.44859969    -0.32000
C2827       C  0.14936864  0.77414797  0.45720330     0.21500
C2828       C  0.13596056  0.78116743  0.45732291     0.03700
C2829       C  0.12434946  0.77599959  0.44881679    -0.21700
C2830       C  0.12691586  0.76371047  0.44004539     0.12800
S2831       S  0.14177598  0.74297292  0.42754719    -0.05400
C2832       C  0.12402317  0.74648134  0.42250665    -0.08800
C2833       C  0.11742551  0.75775166  0.43015609    -0.25400
S2834       S  0.13541585  0.79642361  0.46802706    -0.02600
C2835       C  0.15346175  0.79330406  0.47232567    -0.16100
C2836       C  0.15941266  0.78099983  0.46584635    -0.14100
H2837       H  0.16245083  0.75651568  0.44831630     0.21300
H2838       H  0.11392468  0.78156378  0.44870551     0.17300
H2839       H  0.10669377  0.76209556  0.42791417     0.19900
H2840       H  0.17056720  0.77735426  0.46724122     0.13200
C2841       C  0.07695758  0.73036165  0.43905406     0.17100
C2842       C  0.06876567  0.72558989  0.45104853    -0.32000
C2843       C  0.05766641  0.73482974  0.45618106     0.21500
C2844       C  0.05502562  0.74830182  0.44982123     0.03700
C2845       C  0.06299713  0.75293183  0.43766017    -0.21700
C2846       C  0.07389622  0.74359810  0.43236843     0.12800
S2847       S  0.09123008  0.72103741  0.43147894    -0.05400
C2848       C  0.09267794  0.73493061  0.41896543    -0.08800
C2849       C  0.08275944  0.74617483  0.42064133    -0.25400
S2850       S  0.04149657  0.75816451  0.45795398    -0.02600
C2851       C  0.03904444  0.74383272  0.46981075    -0.16100
C2852       C  0.04838152  0.73211092  0.46758689    -0.14100
H2853       H  0.07097174  0.71520474  0.45616471     0.21300
H2854       H  0.06082353  0.76333843  0.43257823     0.17300
H2855       H  0.08231617  0.75579267  0.41384621     0.19900
H2856       H  0.04840789  0.72221007  0.47399452     0.13200
C2857       C  0.93947927  0.72642312  0.62052988     0.17100
C2858       C  0.94968584  0.71531059  0.62310190    -0.32000
C2859       C  0.95468921  0.71347933  0.63742838     0.21500
C2860       C  0.94998200  0.72249642  0.64862068     0.03700
C2861       C  0.93979101  0.73357534  0.64605101    -0.21700
C2862       C  0.93458685  0.73521451  0.63181087     0.12800
S2863       S  0.93134849  0.72987775  0.60414965    -0.05400
C2864       C  0.92105580  0.74309265  0.61269783    -0.08800
C2865       C  0.92401499  0.74475755  0.62738877    -0.25400
S2866       S  0.95741673  0.71864607  0.66519668    -0.02600
C2867       C  0.96678343  0.70454288  0.65705292    -0.16100
C2868       C  0.96428455  0.70305975  0.64223326    -0.14100
H2869       H  0.95334664  0.70823346  0.61439099     0.21300
H2870       H  0.93589559  0.74045511  0.65481981     0.17300
H2871       H  0.91833986  0.75222617  0.63457187     0.19900
H2872       H  0.96933036  0.69490373  0.63533483     0.13200
C2873       C  0.87211004  0.77647005  0.55853940     0.17100
C2874       C  0.86093655  0.78117115  0.54928755    -0.32000
C2875       C  0.86339357  0.79381990  0.54111380     0.21500
C2876       C  0.87641128  0.80145928  0.54202208     0.03700
C2877       C  0.88770937  0.79660682  0.55111429    -0.21700
C2878       C  0.88523740  0.78394476  0.55934165     0.12800
S2879       S  0.87065052  0.76221300  0.57033197    -0.05400
C2880       C  0.88793992  0.76626934  0.57638678    -0.08800
C2881       C  0.89447903  0.77799768  0.56947369    -0.25400
S2882       S  0.87703237  0.81675933  0.53140485    -0.02600
C2883       C  0.85963530  0.81267549  0.52559536    -0.16100
C2884       C  0.85375536  0.80017111  0.53168989    -0.14100
H2885       H  0.85064477  0.77540308  0.54872772     0.21300
H2886       H  0.89786244  0.80257938  0.55194352     0.17300
H2887       H  0.90495886  0.78256033  0.57240525     0.19900
H2888       H  0.84301354  0.79589015  0.52927737     0.13200
C2889       C  0.94058699  0.75873735  0.56701100     0.17100
C2890       C  0.95344712  0.76298005  0.55991497    -0.32000
C2891       C  0.95836147  0.75429687  0.54831514     0.21500
C2892       C  0.95095578  0.74179107  0.54412451     0.03700
C2893       C  0.93795867  0.73768218  0.55105164    -0.21700
C2894       C  0.93290578  0.74650098  0.56248484     0.12800
S2895       S  0.93306097  0.76756981  0.58159322    -0.05400
C2896       C  0.91927097  0.75486939  0.58126657    -0.08800
C2897       C  0.92051021  0.74432385  0.57055600    -0.25400
S2898       S  0.95904891  0.73240585  0.53021062    -0.02600
C2899       C  0.97232816  0.74568426  0.52976077    -0.16100
C2900       C  0.97054698  0.75668760  0.53998062    -0.14100
H2901       H  0.95938798  0.77260140  0.56331585     0.21300
H2902       H  0.93206656  0.72801199  0.54770542     0.17300
H2903       H  0.91291749  0.73541821  0.56901198     0.19900
H2904       H  0.97787821  0.76584603  0.54134258     0.13200
C2905       C  0.96087613  0.70668180  0.36368393     0.17100
C2906       C  0.95252043  0.71204398  0.37529224    -0.32000
C2907       C  0.94566439  0.72560855  0.37346561     0.21500
C2908       C  0.94696268  0.73343683  0.36061876     0.03700
C2909       C  0.95534320  0.72809484  0.34901661    -0.21700
C2910       C  0.96227451  0.71457314  0.35087794     0.12800
S2911       S  0.97010495  0.69049364  0.36377505    -0.05400
C2912       C  0.97604670  0.69445804  0.34642368    -0.08800
C2913       C  0.97096859  0.70760834  0.34091962    -0.25400
S2914       S  0.93705004  0.74919581  0.36023628    -0.02600
C2915       C  0.93123421  0.74531283  0.37765213    -0.16100
C2916       C  0.93667679  0.73238583  0.38329173    -0.14100
H2917       H  0.95135760  0.70588333  0.38528428     0.21300
H2918       H  0.95632016  0.73415230  0.33894141     0.17300
H2919       H  0.97359793  0.71190264  0.33025355     0.19900
H2920       H  0.93350906  0.72764289  0.39357075     0.13200
C2921       C  0.88300633  0.77843192  0.43228592     0.17100
C2922       C  0.87158661  0.78141289  0.44195415    -0.32000
C2923       C  0.87199947  0.79465816  0.44955066     0.21500
C2924       C  0.88339144  0.80444497  0.44782320     0.03700
C2925       C  0.89496459  0.80135886  0.43828690    -0.21700
C2926       C  0.89445020  0.78816512  0.43050625     0.12800
S2927       S  0.88358499  0.76371103  0.42096024    -0.05400
C2928       C  0.89942013  0.77066253  0.41373520    -0.08800
C2929       C  0.90400738  0.78368553  0.41988638    -0.25400
S2930       S  0.88150232  0.82015228  0.45772723    -0.02600
C2931       C  0.86514126  0.81346505  0.46413345    -0.16100
C2932       C  0.86153494  0.79975002  0.45888635    -0.14100
H2933       H  0.86252116  0.77393842  0.44315228     0.21300
H2934       H  0.90375951  0.80907496  0.43669736     0.17300
H2935       H  0.91323159  0.79000956  0.41611931     0.19900
H2936       H  0.85168606  0.79384888  0.46165470     0.13200
C2937       C  0.94862791  0.76114075  0.42690200     0.17100
C2938       C  0.95948424  0.76575208  0.43661789    -0.32000
C2939       C  0.96447341  0.75566836  0.44698764     0.21500
C2940       C  0.95912966  0.74152522  0.44748607     0.03700
C2941       C  0.94820429  0.73694029  0.43783611    -0.21700
C2942       C  0.94299727  0.74710990  0.42766471     0.12800
S2943       S  0.94087953  0.77181779  0.41374200    -0.05400
C2944       C  0.92986809  0.75726559  0.40939677    -0.08800
C2945       C  0.93203638  0.74489884  0.41775908    -0.25400
S2946       S  0.96671393  0.73092800  0.46080121    -0.02600
C2947       C  0.97691238  0.74582613  0.46601429    -0.16100
C2948       C  0.97462250  0.75822354  0.45764749    -0.14100
H2949       H  0.96372484  0.77676931  0.43623163     0.21300
H2950       H  0.94383219  0.72598045  0.43834485     0.17300
H2951       H  0.92575452  0.73495337  0.41681109     0.19900
H2952       H  0.98009647  0.76856213  0.45928188     0.13200
C2953       C  0.71397757  0.04226780  0.64370647     0.17100
C2954       C  0.72463704  0.05301136  0.64193667    -0.32000
C2955       C  0.72607997  0.05930799  0.62813999     0.21500
C2956       C  0.71755831  0.05490149  0.61646691     0.03700
C2957       C  0.70687304  0.04409651  0.61822958    -0.21700
C2958       C  0.70518247  0.03803116  0.63216696     0.12800
S2959       S  0.71039639  0.03359846  0.65970972    -0.05400
C2960       C  0.69669157  0.02431929  0.65089439    -0.08800
C2961       C  0.69512316  0.02776208  0.63626676    -0.25400
S2962       S  0.72070854  0.06440587  0.60076569    -0.02600
C2963       C  0.73334074  0.07460407  0.61021010    -0.16100
C2964       C  0.73510204  0.07061346  0.62462172    -0.14100
H2965       H  0.73131130  0.05653531  0.65100592     0.21300
H2966       H  0.69997599  0.04080847  0.60924073     0.17300
H2967       H  0.68719652  0.02288418  0.62900845     0.19900
H2968       H  0.74225331  0.07607439  0.63226290     0.13200
C2969       C  0.78157310  0.14416369  0.54819714     0.17100
C2970       C  0.77044377  0.14246920  0.55849033    -0.32000
C2971       C  0.76817713  0.12847529  0.56417295     0.21500
C2972       C  0.77651336  0.11665744  0.55974141     0.03700
C2973       C  0.78771814  0.11836450  0.54949325    -0.21700
C2974       C  0.79008824  0.13240344  0.54389031     0.12800
S2975       S  0.78589054  0.16022207  0.53993455    -0.05400
C2976       C  0.79943547  0.15107218  0.53064994    -0.08800
C2977       C  0.80047058  0.13632907  0.53387220    -0.25400
S2978       S  0.77214395  0.10065107  0.56815322    -0.02600
C2979       C  0.75903957  0.10999508  0.57787857    -0.16100
C2980       C  0.75818657  0.12473881  0.57458068    -0.14100
H2981       H  0.76388313  0.15166880  0.56196515     0.21300
H2982       H  0.79434667  0.10918298  0.54610928     0.17300
H2983       H  0.80821726  0.12886437  0.52898226     0.19900
H2984       H  0.75080553  0.13239773  0.57973172     0.13200
C2985       C  0.75581833  0.05846608  0.56527558     0.17100
C2986       C  0.76252810  0.04716502  0.55742759    -0.32000
C2987       C  0.75559137  0.04227564  0.54470609     0.21500
C2988       C  0.74234475  0.04807810  0.54023922     0.03700
C2989       C  0.73570585  0.05946461  0.54799709    -0.21700
C2990       C  0.74284794  0.06464160  0.56046510     0.12800
S2991       S  0.76258181  0.06607419  0.58087209    -0.05400
C2992       C  0.74810976  0.07803775  0.58046313    -0.08800
C2993       C  0.73841994  0.07600608  0.56911284    -0.25400
S2994       S  0.73547222  0.04038695  0.52476553    -0.02600
C2995       C  0.75084390  0.02958479  0.52398908    -0.16100
C2996       C  0.76061251  0.03174375  0.53531755    -0.14100
H2997       H  0.77278892  0.04251178  0.56098325     0.21300
H2998       H  0.72550709  0.06420114  0.54437155     0.17300
H2999       H  0.72872599  0.08252059  0.56732231     0.19900
H3000       H  0.77075634  0.02582952  0.53667381     0.13200
C3001       C  0.71985262  0.05089334  0.34517808     0.17100
C3002       C  0.72961679  0.06248721  0.34688047    -0.32000
C3003       C  0.73128651  0.06834599  0.36085309     0.21500
C3004       C  0.72379491  0.06276679  0.37271011     0.03700
C3005       C  0.71400568  0.05110470  0.37102061    -0.21700
C3006       C  0.71211276  0.04540522  0.35693911     0.12800
S3007       S  0.71617615  0.04257882  0.32901024    -0.05400
C3008       C  0.70382739  0.03170911  0.33803994    -0.08800
C3009       C  0.70280285  0.03438136  0.35288771    -0.25400
S3010       S  0.72726183  0.07169029  0.38868325    -0.02600
C3011       C  0.73878228  0.08316781  0.37920970    -0.16100
C3012       C  0.73981304  0.08003085  0.36448892    -0.14100
H3013       H  0.73550360  0.06689788  0.33765884     0.21300
H3014       H  0.70797434  0.04682924  0.38020998     0.17300
H3015       H  0.69572005  0.02853606  0.36029606     0.19900
H3016       H  0.74636782  0.08610171  0.35678144     0.13200
C3017       C  0.77963608  0.12142946  0.43466659     0.17100
C3018       C  0.78923120  0.12214214  0.44654734    -0.32000
C3019       C  0.79163479  0.13587367  0.45288940     0.21500
C3020       C  0.78460751  0.14827391  0.44778652     0.03700
C3021       C  0.77510338  0.14756277  0.43587671    -0.21700
C3022       C  0.77287524  0.13389645  0.42941317     0.12800
S3023       S  0.77546696  0.10593764  0.42521029    -0.05400
C3024       C  0.76456805  0.11639365  0.41397752    -0.08800
C3025       C  0.76433045  0.13109875  0.41751622    -0.25400
S3026       S  0.78877298  0.16386395  0.45703174    -0.02600
C3027       C  0.80038216  0.15367117  0.46770411    -0.16100
C3028       C  0.80081210  0.13892691  0.46428880    -0.14100
H3029       H  0.79468110  0.11246095  0.45057378     0.21300
H3030       H  0.76976096  0.15726432  0.43175543     0.17300
H3031       H  0.75825533  0.13934797  0.41163377     0.19900
H3032       H  0.80742390  0.13088935  0.46988139     0.13200
C3033       C  0.74567840  0.07040043  0.43040138     0.17100
C3034       C  0.74072875  0.06251284  0.44248677    -0.32000
C3035       C  0.74908040  0.05051829  0.44700430     0.21500
C3036       C  0.76191917  0.04668669  0.43996187     0.03700
C3037       C  0.76668902  0.05435551  0.42767489    -0.21700
C3038       C  0.75822262  0.06620003  0.42302026     0.12800
S3039       S  0.73740651  0.08562645  0.42355716    -0.05400
C3040       C  0.75076677  0.08597600  0.41043570    -0.08800
C3041       C  0.76109136  0.07502699  0.41136186    -0.25400
S3042       S  0.77091362  0.03230016  0.44760364    -0.02600
C3043       C  0.75701597  0.03118304  0.46014184    -0.16100
C3044       C  0.74608418  0.04148494  0.45849546    -0.14100
H3045       H  0.73086748  0.06564825  0.44817962     0.21300
H3046       H  0.77661603  0.05129273  0.42205616     0.17300
H3047       H  0.77029886  0.07383020  0.40407673     0.19900
H3048       H  0.73660924  0.04244473  0.46547551     0.13200
C3049       C  0.72109694  0.93652778  0.61181754     0.17100
C3050       C  0.71066082  0.94754743  0.61404608    -0.32000
C3051       C  0.70790870  0.95189485  0.62847147     0.21500
C3052       C  0.71557666  0.94589734  0.64004213     0.03700
C3053       C  0.72606142  0.93505771  0.63779722    -0.21700
C3054       C  0.72845377  0.93039657  0.62350026     0.12800
S3055       S  0.72510549  0.92860411  0.59542139    -0.05400
C3056       C  0.73644610  0.91666861  0.60456285    -0.08800
C3057       C  0.73725035  0.91908736  0.61941292    -0.25400
S3058       S  0.71073135  0.95241531  0.65670489    -0.02600
C3059       C  0.69792786  0.96312361  0.64814197    -0.16100
C3060       C  0.69763808  0.96179804  0.63308403    -0.14100
H3061       H  0.70462008  0.95215639  0.60501759     0.21300
H3062       H  0.73178249  0.93012970  0.64686917     0.17300
H3063       H  0.74352777  0.91250460  0.62694599     0.19900
H3064       H  0.69041024  0.96781152  0.62593884     0.13200
C3065       C  0.77318515  0.86778909  0.55242873     0.17100
C3066       C  0.77892338  0.85691003  0.54340746    -0.32000
C3067       C  0.79186619  0.86001487  0.53594153     0.21500
C3068       C  0.79878167  0.87340109  0.53723694     0.03700
C3069       C  0.79286598  0.88442792  0.54605752    -0.21700
C3070       C  0.77994279  0.88126894  0.55364104     0.12800
S3071       S  0.75842599  0.86554942  0.56348748    -0.05400
C3072       C  0.76128060  0.88299438  0.56978826    -0.08800
C3073       C  0.77303821  0.89012720  0.56350527    -0.25400
S3074       S  0.81475118  0.87466473  0.52766971    -0.02600
C3075       C  0.81198214  0.85697854  0.52187711    -0.16100
C3076       C  0.79932625  0.85061116  0.52710702    -0.14100
H3077       H  0.77375016  0.84632353  0.54256755     0.21300
H3078       H  0.79828001  0.89485714  0.54724646     0.17300
H3079       H  0.77692362  0.90081153  0.56666683     0.19900
H3080       H  0.79581221  0.83959648  0.52466786     0.13200
C3081       C  0.74464374  0.92877349  0.55265394     0.17100
C3082       C  0.74042418  0.93619457  0.54002511    -0.32000
C3083       C  0.74877684  0.94825239  0.53580292     0.21500
C3084       C  0.76092393  0.95263916  0.54367350     0.03700
C3085       C  0.76499073  0.94538812  0.55647629    -0.21700
C3086       C  0.75651466  0.93343323  0.56081235     0.12800
S3087       S  0.73623107  0.91356079  0.55923865    -0.05400
C3088       C  0.74861915  0.91375164  0.57326425    -0.08800
C3089       C  0.75874320  0.92490278  0.57284752    -0.25400
S3090       S  0.76992694  0.96719404  0.53638090    -0.02600
C3091       C  0.75695952  0.96755502  0.52282130    -0.16100
C3092       C  0.74634652  0.95688887  0.52390382    -0.14100
H3093       H  0.73109292  0.93266921  0.53371526     0.21300
H3094       H  0.77438065  0.94885635  0.56272949     0.17300
H3095       H  0.76740474  0.92641509  0.58071311     0.19900
H3096       H  0.73740400  0.95547695  0.51632872     0.13200
C3097       C  0.73092861  0.93876330  0.36836699     0.17100
C3098       C  0.71983769  0.94919705  0.36703717    -0.32000
C3099       C  0.71758464  0.95537452  0.35325533     0.21500
C3100       C  0.72607730  0.95148238  0.34136604     0.03700
C3101       C  0.73705726  0.94096470  0.34267086    -0.21700
C3102       C  0.73921360  0.93470060  0.35640367     0.12800
S3103       S  0.73521166  0.92968154  0.38402224    -0.05400
C3104       C  0.74818569  0.92020601  0.37426994    -0.08800
C3105       C  0.74906438  0.92403136  0.35971202    -0.25400
S3106       S  0.72184893  0.96044413  0.32565586    -0.02600
C3107       C  0.70833760  0.96935515  0.33515694    -0.16100
C3108       C  0.70727753  0.96556683  0.34971733    -0.14100
H3109       H  0.71320460  0.95229047  0.37629471     0.21300
H3110       H  0.74358983  0.93775510  0.33338021     0.17300
H3111       H  0.75636880  0.91905173  0.35188056     0.19900
H3112       H  0.69947987  0.97013215  0.35732285     0.13200
C3113       C  0.78415986  0.86970184  0.42499644     0.17100
C3114       C  0.78894801  0.85825233  0.43381580    -0.32000
C3115       C  0.80044838  0.86108781  0.44338976     0.21500
C3116       C  0.80695181  0.87471880  0.44422835     0.03700
C3117       C  0.80202580  0.88628001  0.43549530    -0.21700
C3118       C  0.79046772  0.88343017  0.42587806     0.12800
S3119       S  0.77104862  0.86803624  0.41201046    -0.05400
C3120       C  0.77395297  0.88605868  0.40772821    -0.08800
C3121       C  0.78451729  0.89296585  0.41603039    -0.25400
S3122       S  0.82095295  0.87570544  0.45648904    -0.02600
C3123       C  0.81781831  0.85760630  0.46054409    -0.16100
C3124       C  0.80659626  0.85126842  0.45271817    -0.14100
H3125       H  0.78406390  0.84751905  0.43308689     0.21300
H3126       H  0.80707682  0.89694340  0.43604142     0.17300
H3127       H  0.78822186  0.90405515  0.41440934     0.19900
H3128       H  0.80304621  0.84005456  0.45385783     0.13200
C3129       C  0.75416828  0.93031081  0.42682066     0.17100
C3130       C  0.74873344  0.93698232  0.43944218    -0.32000
C3131       C  0.75609020  0.94931530  0.44471250     0.21500
C3132       C  0.76849415  0.95463917  0.43790614     0.03700
C3133       C  0.77379969  0.94811468  0.42512058    -0.21700
C3134       C  0.76627389  0.93592759  0.41968626     0.12800
S3135       S  0.74695340  0.91504693  0.41892367    -0.05400
C3136       C  0.76011249  0.91653728  0.40566951    -0.08800
C3137       C  0.76964484  0.92812048  0.40737415    -0.25400
S3138       S  0.77606951  0.96945920  0.44635430    -0.02600
C3139       C  0.76211469  0.96871072  0.45890667    -0.16100
C3140       C  0.75228431  0.95745032  0.45665632    -0.14100
H3141       H  0.73917498  0.93274580  0.44491824     0.21300
H3142       H  0.78335791  0.95235296  0.41964736     0.17300
H3143       H  0.77865217  0.93049486  0.40013572     0.19900
H3144       H  0.74286343  0.95531649  0.46344175     0.13200
loop_ 
_geom_bond_atom_site_label_1 
_geom_bond_atom_site_label_2 
_geom_bond_distance 
_geom_bond_site_symmetry_2 
_ccdc_geom_bond_type 
N1            C5   1.353       .  A
N1            C2   1.355       .  A
N1         C3136   1.434       .  S
C2            C3   1.384       .  A
C2         C3104   1.473       .  S
C3            C4   1.374       .  A
C3            H6   1.082       .  S
C4            C5   1.381       .  A
C4            H7   1.082       .  S
C5         C3120   1.468       .  S
N8           C12   1.352       .  A
N8            C9   1.353       .  A
N8         C3088   1.429       .  S
C9           C10   1.385       .  A
C9         C3056   1.478       .  S
C10          C11   1.377       .  A
C10          H13   1.082       .  S
C11          C12   1.381       .  A
C11          H14   1.082       .  S
C12        C3072   1.473       .  S
N15          C19   1.354       .  A
N15          C16   1.355       .  A
N15        C3040   1.429       .  S
C16          C17   1.384       .  A
C16        C3024   1.481       .  S
C17          C18   1.378       .  A
C17          H20   1.082       .  S
C18          C19   1.384       .  A
C18          H21   1.082       .  S
C19        C3011   1.482       .  S
N22          C26   1.356       .  A
N22          C23   1.352       .  A
N22        C2992   1.433       .  S
C23          C24   1.382       .  A
C23        C2963   1.471       .  S
C24          C25   1.376       .  A
C24          H27   1.082       .  S
C25          C26   1.385       .  A
C25          H28   1.082       .  S
C26        C2979   1.479       .  S
O29         Cu37   2.023   1_565  S
O29          C39   1.279       .  A
O30         Cu37   2.022       .  S
O30          C40   1.279       .  A
O31         Cu37   2.002   1_565  S
O31          C41   1.276       .  A
O32         Cu37   2.003       .  S
O32          C42   1.276       .  A
O33         Cu38   2.009   1_545  S
O33          C42   1.278       .  A
O34         Cu38   2.005       .  S
O34          C41   1.278       .  A
O35         Cu38   2.007   1_545  S
O35          C40   1.277       .  A
O36         Cu38   2.009       .  S
O36          C39   1.278       .  A
Cu37        Cu38   2.376   1_545  S
C39        C3139   1.473       .  S
C40        C2995   1.472       .  S
C41        C3091   1.465       .  S
C42        C3043   1.464       .  S
N43          C47   1.353       .  A
N43          C44   1.356       .  A
N43        C2944   1.434       .  S
C44          C45   1.382       .  A
C44        C2915   1.474       .  S
C45          C46   1.376       .  A
C45          H48   1.082       .  S
C46          C47   1.381       .  A
C46          H49   1.082       .  S
C47        C2928   1.470       .  S
N50          C54   1.353       .  A
N50          C51   1.354       .  A
N50        C2896   1.433       .  S
C51          C52   1.383       .  A
C51        C2864   1.474       .  S
C52          C53   1.375       .  A
C52          H55   1.082       .  S
C53          C54   1.381       .  A
C53          H56   1.082       .  S
C54        C2880   1.470       .  S
N57          C61   1.355       .  A
N57          C58   1.357       .  A
N57        C2848   1.433       .  S
C58          C59   1.385       .  A
C58        C2816   1.481       .  S
C59          C60   1.375       .  A
C59          H62   1.082       .  S
C60          C61   1.381       .  A
C60          H63   1.082       .  S
C61        C2832   1.475       .  S
N64          C68   1.354       .  A
N64          C65   1.353       .  A
N64        C2803   1.432       .  S
C65          C66   1.383       .  A
C65        C2768   1.475       .  S
C66          C67   1.378       .  A
C66          H69   1.082       .  S
C67          C68   1.383       .  A
C67          H70   1.082       .  S
C68        C2784   1.477       .  S
O71         Cu79   2.017   1_655  S
O71          C81   1.278       .  A
O72         Cu79   2.011       .  S
O72          C82   1.278       .  A
O73         Cu79   2.014       .  S
O73          C83   1.278       .  A
O74         Cu79   2.015   1_655  S
O74          C84   1.278       .  A
O75         Cu80   2.011   1_655  S
O75          C84   1.278       .  A
O76         Cu80   2.010       .  S
O76          C83   1.277       .  A
O77         Cu80   2.012       .  S
O77          C82   1.278       .  A
O78         Cu80   2.012   1_655  S
O78          C81   1.278       .  A
Cu79        Cu80   2.375       .  S
C81        C2899   1.472       .  S
C82        C2851   1.471       .  S
C83        C2800   1.468       .  S
C84        C2947   1.474       .  S
N85          C89   1.356       .  A
N85          C86   1.356       .  A
N85        C2752   1.432       .  S
C86          C87   1.381       .  A
C86        C2736   1.477       .  S
C87          C88   1.377       .  A
C87          H90   1.082       .  S
C88          C89   1.383       .  A
C88          H91   1.082       .  S
C89        C2720   1.479       .  S
N92          C96   1.354       .  A
N92          C93   1.354       .  A
N92        C2704   1.433       .  S
C93          C94   1.381       .  A
C93        C2688   1.470       .  S
C94          C95   1.376       .  A
C94          H97   1.082       .  S
C95          C96   1.382       .  A
C95          H98   1.082       .  S
C96        C2675   1.472       .  S
N99         C103   1.352       .  A
N99         C100   1.355       .  A
N99        C2659   1.433       .  S
C100        C101   1.384       .  A
C100       C2640   1.475       .  S
C101        C102   1.376       .  A
C101        H104   1.082       .  S
C102        C103   1.381       .  A
C102        H105   1.082       .  S
C103       C2627   1.469       .  S
N106        C110   1.355       .  A
N106        C107   1.354       .  A
N106       C2608   1.431       .  S
C107        C108   1.383       .  A
C107       C2592   1.477       .  S
C108        C109   1.376       .  A
C108        H111   1.082       .  S
C109        C110   1.383       .  A
C109        H112   1.082       .  S
C110       C2576   1.477       .  S
O113       Cu121   2.009   1_545  S
O113        C123   1.277       .  A
O114       Cu121   2.010       .  S
O114        C124   1.278       .  A
O115       Cu121   2.013       .  S
O115        C125   1.278       .  A
O116       Cu121   2.011   1_545  S
O116        C126   1.278       .  A
O117       Cu122   2.009   1_545  S
O117        C126   1.277       .  A
O118       Cu122   2.014       .  S
O118        C125   1.278       .  A
O119       Cu122   2.019       .  S
O119        C124   1.279       .  A
O120       Cu122   2.020   1_545  S
O120        C123   1.279       .  A
Cu121      Cu122   2.374       .  S
C123       C2656   1.474       .  S
C124       C2707   1.473       .  S
C125       C2755   1.473       .  S
C126       C2611   1.469       .  S
N127        C131   1.354       .  A
N127        C128   1.357       .  A
N127       C2560   1.432       .  S
C128        C129   1.384       .  A
C128       C2544   1.482       .  S
C129        C130   1.376       .  A
C129        H132   1.082       .  S
C130        C131   1.383       .  A
C130        H133   1.082       .  S
C131       C2531   1.478       .  S
N134        C138   1.357       .  A
N134        C135   1.355       .  A
N134       C2512   1.433       .  S
C135        C136   1.381       .  A
C135       C2496   1.475       .  S
C136        C137   1.374       .  A
C136        H139   1.082       .  S
C137        C138   1.386       .  A
C137        H140   1.082       .  S
C138       C2480   1.483       .  S
N141        C145   1.355       .  A
N141        C142   1.355       .  A
N141       C2464   1.432       .  S
C142        C143   1.383       .  A
C142       C2448   1.477       .  S
C143        C144   1.374       .  A
C143        H146   1.082       .  S
C144        C145   1.383       .  A
C144        H147   1.082       .  S
C145       C2432   1.476       .  S
N148        C152   1.351       .  A
N148        C149   1.352       .  A
N148       C2416   1.433       .  S
C149        C150   1.382       .  A
C149       C2400   1.466       .  S
C150        C151   1.375       .  A
C150        H153   1.082       .  S
C151        C152   1.381       .  A
C151        H154   1.082       .  S
C152       C2387   1.465       .  S
O155       Cu163   2.012       .  S
O155        C165   1.278       .  A
O156       Cu163   2.013   1_545  S
O156        C166   1.278       .  A
O157       Cu163   2.009       .  S
O157        C167   1.278       .  A
O158       Cu163   2.009   1_545  S
O158        C168   1.277       .  A
O159       Cu164   2.015   1_545  S
O159        C168   1.279       .  A
O160       Cu164   2.011       .  S
O160        C167   1.278       .  A
O161       Cu164   2.012   1_545  S
O161        C166   1.278       .  A
O162       Cu164   2.017       .  S
O162        C165   1.278       .  A
Cu163      Cu164   2.375       .  S
C165       C2515   1.473       .  S
C166       C2467   1.469       .  S
C167       C2563   1.469       .  S
C168       C2419   1.472       .  S
N169        C173   1.355       .  A
N169        C170   1.355       .  A
N169       C2368   1.435       .  S
C170        C171   1.381       .  A
C170       C2352   1.471       .  S
C171        C172   1.376       .  A
C171        H174   1.082       .  S
C172        C173   1.383       .  A
C172        H175   1.082       .  S
C173       C2336   1.475       .  S
N176        C180   1.355       .  A
N176        C177   1.355       .  A
N176       C2320   1.434       .  S
C177        C178   1.381       .  A
C177       C2288   1.471       .  S
C178        C179   1.375       .  A
C178        H181   1.082       .  S
C179        C180   1.383       .  A
C179        H182   1.082       .  S
C180       C2304   1.474       .  S
N183        C187   1.357       .  A
N183        C184   1.355       .  A
N183       C2272   1.434       .  S
C184        C185   1.382       .  A
C184       C2256   1.476       .  S
C185        C186   1.374       .  A
C185        H188   1.082       .  S
C186        C187   1.384       .  A
C186        H189   1.082       .  S
C187       C2243   1.479       .  S
N190        C194   1.353       .  A
N190        C191   1.355       .  A
N190       C2224   1.434       .  S
C191        C192   1.384       .  A
C191       C2211   1.476       .  S
C192        C193   1.377       .  A
C192        H195   1.082       .  S
C193        C194   1.381       .  A
C193        H196   1.082       .  S
C194       C2192   1.470       .  S
O197       Cu205   2.012   1_556  S
O197        C207   1.278       .  A
O198       Cu205   2.015       .  S
O198        C208   1.278       .  A
O199       Cu205   2.012       .  S
O199        C209   1.278       .  A
O200       Cu205   2.012   1_556  S
O200        C210   1.278       .  A
O201       Cu206   2.019   1_556  S
O201        C210   1.278       .  A
O202       Cu206   2.018       .  S
O202        C209   1.278       .  A
O203       Cu206   2.024       .  S
O203        C208   1.279       .  A
O204       Cu206   2.020   1_556  S
O204        C207   1.278       .  A
Cu205      Cu206   2.374       .  S
C207       C2371   1.471       .  S
C208       C2227   1.476       .  S
C209       C2275   1.472       .  S
C210       C2323   1.474       .  S
N211        C215   1.353       .  A
N211        C212   1.354       .  A
N211       C2176   1.433       .  S
C212        C213   1.384       .  A
C212       C2160   1.475       .  S
C213        C214   1.375       .  A
C213        H216   1.082       .  S
C214        C215   1.381       .  A
C214        H217   1.082       .  S
C215       C2147   1.470       .  S
N218        C222   1.356       .  A
N218        C219   1.355       .  A
N218       C2128   1.433       .  S
C219        C220   1.383       .  A
C219       C2112   1.477       .  S
C220        C221   1.376       .  A
C220        H223   1.082       .  S
C221        C222   1.382       .  A
C221        H224   1.082       .  S
C222       C2096   1.476       .  S
N225        C229   1.356       .  A
N225        C226   1.355       .  A
N225       C2080   1.433       .  S
C226        C227   1.382       .  A
C226       C2064   1.476       .  S
C227        C228   1.376       .  A
C227        H230   1.082       .  S
C228        C229   1.383       .  A
C228        H231   1.082       .  S
C229       C2051   1.477       .  S
N232        C236   1.352       .  A
N232        C233   1.353       .  A
N232       C2032   1.433       .  S
C233        C234   1.384       .  A
C233       C2019   1.474       .  S
C234        C235   1.378       .  A
C234        H237   1.082       .  S
C235        C236   1.381       .  A
C235        H238   1.082       .  S
C236       C2000   1.469       .  S
O239       Cu247   2.021       .  S
O239        C249   1.279       .  A
O240       Cu247   2.019   1_545  S
O240        C250   1.278       .  A
O241       Cu247   2.018       .  S
O241        C251   1.279       .  A
O242       Cu247   2.017   1_545  S
O242        C252   1.278       .  A
O243       Cu248   2.011   1_545  S
O243        C252   1.278       .  A
O244       Cu248   2.011       .  S
O244        C251   1.277       .  A
O245       Cu248   2.008   1_545  S
O245        C250   1.277       .  A
O246       Cu248   2.010       .  S
O246        C249   1.278       .  A
Cu247      Cu248   2.374       .  S
C249       C2179   1.473       .  S
C250       C2035   1.472       .  S
C251       C2131   1.473       .  S
C252       C2083   1.473       .  S
N253        C257   1.352       .  A
N253        C254   1.352       .  A
N253       C1984   1.432       .  S
C254        C255   1.382       .  A
C254       C1955   1.471       .  S
C255        C256   1.377       .  A
C255        H258   1.082       .  S
C256        C257   1.381       .  A
C256        H259   1.082       .  S
C257       C1968   1.468       .  S
N260        C264   1.353       .  A
N260        C261   1.354       .  A
N260       C1936   1.433       .  S
C261        C262   1.382       .  A
C261       C1904   1.472       .  S
C262        C263   1.376       .  A
C262        H265   1.082       .  S
C263        C264   1.381       .  A
C263        H266   1.082       .  S
C264       C1920   1.469       .  S
N267        C271   1.355       .  A
N267        C268   1.356       .  A
N267       C1888   1.433       .  S
C268        C269   1.383       .  A
C268       C1875   1.477       .  S
C269        C270   1.377       .  A
C269        H272   1.082       .  S
C270        C271   1.383       .  A
C270        H273   1.082       .  S
C271       C1859   1.479       .  S
N274        C278   1.354       .  A
N274        C275   1.354       .  A
N274       C1843   1.431       .  S
C275        C276   1.383       .  A
C275       C1824   1.476       .  S
C276        C277   1.376       .  A
C276        H279   1.082       .  S
C277        C278   1.382       .  A
C277        H280   1.082       .  S
C278       C1811   1.474       .  S
O281       Cu289   2.015       .  S
O281        C291   1.278       .  A
O282       Cu289   2.014   1_554  S
O282        C292   1.278       .  A
O283       Cu289   1.995       .  S
O283        C293   1.276       .  A
O284       Cu289   1.996   1_554  S
O284        C294   1.276       .  A
O285       Cu290   2.018   1_554  S
O285        C294   1.278       .  A
O286       Cu290   2.023       .  S
O286        C293   1.279       .  A
O287       Cu290   2.014   1_554  S
O287        C292   1.278       .  A
O288       Cu290   2.013       .  S
O288        C291   1.278       .  A
Cu289      Cu290   2.375       .  S
C291       C1939   1.474       .  S
C292       C1891   1.472       .  S
C293       C1987   1.469       .  S
C294       C1840   1.468       .  S
N295        C299   1.353       .  A
N295        C296   1.357       .  A
N295       C1795   1.432       .  S
C296        C297   1.384       .  A
C296       C1776   1.480       .  S
C297        C298   1.377       .  A
C297        H300   1.082       .  S
C298        C299   1.380       .  A
C298        H301   1.082       .  S
C299       C1760   1.471       .  S
N302        C306   1.352       .  A
N302        C303   1.352       .  A
N302       C1744   1.432       .  S
C303        C304   1.382       .  A
C303       C1728   1.469       .  S
C304        C305   1.377       .  A
C304        H307   1.082       .  S
C305        C306   1.382       .  A
C305        H308   1.082       .  S
C306       C1712   1.470       .  S
N309        C313   1.354       .  A
N309        C310   1.354       .  A
N309       C1696   1.432       .  S
C310        C311   1.383       .  A
C310       C1680   1.476       .  S
C311        C312   1.377       .  A
C311        H314   1.082       .  S
C312        C313   1.382       .  A
C312        H315   1.082       .  S
C313       C1664   1.473       .  S
N316        C320   1.354       .  A
N316        C317   1.352       .  A
N316       C1651   1.432       .  S
C317        C318   1.381       .  A
C317       C1616   1.470       .  S
C318        C319   1.377       .  A
C318        H321   1.082       .  S
C319        C320   1.384       .  A
C319        H322   1.082       .  S
C320       C1635   1.476       .  S
O323       Cu331   2.009   1_554  S
O323        C333   1.278       .  A
O324       Cu331   2.012       .  S
O324        C334   1.277       .  A
O325       Cu331   2.020   1_554  S
O325        C335   1.279       .  A
O326       Cu331   2.016       .  S
O326        C336   1.279       .  A
O327       Cu332   2.007       .  S
O327        C336   1.277       .  A
O328       Cu332   2.004   1_554  S
O328        C335   1.277       .  A
O329       Cu332   2.010       .  S
O329        C334   1.278       .  A
O330       Cu332   2.011   1_554  S
O330        C333   1.277       .  A
Cu331      Cu332   2.375       .  S
C333       C1699   1.471       .  S
C334       C1747   1.470       .  S
C335       C1648   1.471       .  S
C336       C1792   1.471       .  S
N337        C341   1.354       .  A
N337        C338   1.355       .  A
N337       C1600   1.433       .  S
C338        C339   1.384       .  A
C338       C1584   1.476       .  S
C339        C340   1.375       .  A
C339        H342   1.082       .  S
C340        C341   1.381       .  A
C340        H343   1.082       .  S
C341       C1568   1.472       .  S
N344        C348   1.356       .  A
N344        C345   1.353       .  A
N344       C1552   1.433       .  S
C345        C346   1.381       .  A
C345       C1520   1.473       .  S
C346        C347   1.377       .  A
C346        H349   1.082       .  S
C347        C348   1.385       .  A
C347        H350   1.082       .  S
C348       C1536   1.479       .  S
N351        C355   1.353       .  A
N351        C352   1.353       .  A
N351       C1504   1.432       .  S
C352        C353   1.382       .  A
C352       C1488   1.471       .  S
C353        C354   1.378       .  A
C353        H356   1.082       .  S
C354        C355   1.381       .  A
C354        H357   1.082       .  S
C355       C1472   1.469       .  S
N358        C362   1.354       .  A
N358        C359   1.352       .  A
N358       C1456   1.433       .  S
C359        C360   1.380       .  A
C359       C1427   1.467       .  S
C360        C361   1.377       .  A
C360        H363   1.082       .  S
C361        C362   1.383       .  A
C361        H364   1.082       .  S
C362       C1440   1.472       .  S
O365       Cu373   2.010       .  S
O365        C375   1.278       .  A
O366       Cu373   2.011   1_655  S
O366        C376   1.278       .  A
O367       Cu373   2.010       .  S
O367        C377   1.277       .  A
O368       Cu373   2.014   1_655  S
O368        C378   1.278       .  A
O369       Cu374   2.013   1_655  S
O369        C378   1.278       .  A
O370       Cu374   2.014       .  S
O370        C377   1.279       .  A
O371       Cu374   2.013   1_655  S
O371        C376   1.278       .  A
O372       Cu374   2.020       .  S
O372        C375   1.279       .  A
Cu373      Cu374   2.374       .  S
C375       C1459   1.475       .  S
C376       C1603   1.471       .  S
C377       C1507   1.473       .  S
C378       C1555   1.471       .  S
N379        C383   1.357       .  A
N379        C380   1.359       .  A
N379       C1408   1.434       .  S
C380        C381   1.384       .  A
C380       C1392   1.482       .  S
C381        C382   1.374       .  A
C381        H384   1.082       .  S
C382        C383   1.380       .  A
C382        H385   1.082       .  S
C383       C1376   1.475       .  S
N386        C390   1.354       .  A
N386        C387   1.354       .  A
N386       C1360   1.433       .  S
C387        C388   1.384       .  A
C387       C1344   1.476       .  S
C388        C389   1.376       .  A
C388        H391   1.082       .  S
C389        C390   1.381       .  A
C389        H392   1.082       .  S
C390       C1331   1.473       .  S
N393        C397   1.352       .  A
N393        C394   1.353       .  A
N393       C1312   1.433       .  S
C394        C395   1.382       .  A
C394       C1296   1.469       .  S
C395        C396   1.377       .  A
C395        H398   1.082       .  S
C396        C397   1.382       .  A
C396        H399   1.082       .  S
C397       C1280   1.469       .  S
N400        C404   1.355       .  A
N400        C401   1.355       .  A
N400       C1267   1.432       .  S
C401        C402   1.383       .  A
C401       C1248   1.477       .  S
C402        C403   1.377       .  A
C402        H405   1.082       .  S
C403        C404   1.382       .  A
C403        H406   1.082       .  S
C404       C1235   1.477       .  S
O407       Cu415   2.000       .  S
O407        C417   1.276       .  A
O408       Cu415   2.004   1_556  S
O408        C418   1.277       .  A
O409       Cu415   2.015   1_556  S
O409        C419   1.278       .  A
O410       Cu415   2.015       .  S
O410        C420   1.278       .  A
O411       Cu416   2.007       .  S
O411        C420   1.277       .  A
O412       Cu416   2.014   1_556  S
O412        C419   1.278       .  A
O413       Cu416   2.020   1_556  S
O413        C418   1.279       .  A
O414       Cu416   2.028       .  S
O414        C417   1.280       .  A
Cu415      Cu416   2.375       .  S
C417       C1315   1.473       .  S
C418       C1363   1.470       .  S
C419       C1411   1.475       .  S
C420       C1264   1.469       .  S
N421        C425   1.355       .  A
N421        C422   1.353       .  A
N421       C1216   1.435       .  S
C422        C423   1.382       .  A
C422       C1187   1.470       .  S
C423        C424   1.374       .  A
C423        H426   1.082       .  S
C424        C425   1.384       .  A
C424        H427   1.082       .  S
C425       C1200   1.475       .  S
N428        C432   1.351       .  A
N428        C429   1.352       .  A
N428       C1168   1.434       .  S
C429        C430   1.383       .  A
C429       C1136   1.470       .  S
C430        C431   1.375       .  A
C430        H433   1.082       .  S
C431        C432   1.382       .  A
C431        H434   1.082       .  S
C432       C1152   1.467       .  S
N435        C439   1.353       .  A
N435        C436   1.354       .  A
N435       C1120   1.431       .  S
C436        C437   1.382       .  A
C436       C1088   1.477       .  S
C437        C438   1.379       .  A
C437        H440   1.082       .  S
C438        C439   1.383       .  A
C438        H441   1.082       .  S
C439       C1107   1.478       .  S
N442        C446   1.352       .  A
N442        C443   1.350       .  A
N442       C1075   1.433       .  S
C443        C444   1.382       .  A
C443       C1040   1.466       .  S
C444        C445   1.378       .  A
C444        H447   1.082       .  S
C445        C446   1.382       .  A
C445        H448   1.082       .  S
C446       C1056   1.468       .  S
O449       Cu457   2.026       .  S
O449        C459   1.280       .  A
O450       Cu457   2.028   1_655  S
O450        C460   1.280       .  A
O451       Cu457   2.002   1_655  S
O451        C461   1.276       .  A
O452       Cu457   2.000       .  S
O452        C462   1.276       .  A
O453       Cu458   2.020       .  S
O453        C462   1.279       .  A
O454       Cu458   2.020   1_655  S
O454        C461   1.279       .  A
O455       Cu458   2.002   1_655  S
O455        C460   1.277       .  A
O456       Cu458   2.005       .  S
O456        C459   1.277       .  A
Cu457      Cu458   2.375       .  S
C459       C1072   1.473       .  S
C460       C1219   1.473       .  S
C461       C1171   1.467       .  S
C462       C1123   1.468       .  S
N463        C467   1.353       .  A
N463        C464   1.354       .  A
N463       C1024   1.431       .  S
C464        C465   1.383       .  A
C464        C995   1.476       .  S
C465        C466   1.377       .  A
C465        H468   1.082       .  S
C466        C467   1.382       .  A
C466        H469   1.082       .  S
C467       C1008   1.473       .  S
N470        C474   1.356       .  A
N470        C471   1.356       .  A
N470        C976   1.434       .  S
C471        C472   1.383       .  A
C471        C944   1.476       .  S
C472        C473   1.373       .  A
C472        H475   1.082       .  S
C473        C474   1.383       .  A
C473        H476   1.082       .  S
C474        C960   1.477       .  S
N477        C481   1.352       .  A
N477        C478   1.353       .  A
N477        C928   1.433       .  S
C478        C479   1.382       .  A
C478        C896   1.469       .  S
C479        C480   1.376       .  A
C479        H482   1.082       .  S
C480        C481   1.382       .  A
C480        H483   1.082       .  S
C481        C915   1.469       .  S
N484        C488   1.354       .  A
N484        C485   1.354       .  A
N484        C880   1.431       .  S
C485        C486   1.384       .  A
C485        C851   1.477       .  S
C486        C487   1.376       .  A
C486        H489   1.082       .  S
C487        C488   1.381       .  A
C487        H490   1.082       .  S
C488        C867   1.473       .  S
O491       Cu499   2.014       .  S
O491        C501   1.278       .  A
O492       Cu499   2.013   1_655  S
O492        C502   1.278       .  A
O493       Cu499   2.002   1_655  S
O493        C503   1.276       .  A
O494       Cu499   2.002       .  S
O494        C504   1.276       .  A
O495       Cu500   2.021       .  S
O495        C504   1.279       .  A
O496       Cu500   2.019   1_655  S
O496        C503   1.279       .  A
O497       Cu500   2.017   1_655  S
O497        C502   1.278       .  A
O498       Cu500   2.018       .  S
O498        C501   1.278       .  A
Cu499      Cu500   2.375       .  S
C501        C931   1.474       .  S
C502        C979   1.471       .  S
C503       C1027   1.469       .  S
C504        C883   1.469       .  S
O505       Cu513   2.009   1_455  S
O505        C515   1.278       .  A
O506       Cu513   2.006       .  S
O506        C516   1.277       .  A
O507       Cu513   1.999       .  S
O507        C517   1.276       .  A
O508       Cu513   2.004   1_455  S
O508        C518   1.278       .  A
O509       Cu514   2.004   1_455  S
O509        C518   1.276       .  A
O510       Cu514   2.001       .  S
O510        C517   1.277       .  A
O511       Cu514   2.014       .  S
O511        C516   1.279       .  A
O512       Cu514   2.013   1_455  S
O512        C515   1.278       .  A
Cu513      Cu514   2.375       .  S
C515       C1091   1.473       .  S
C516        C992   1.471       .  S
C517       C1184   1.464       .  S
C518        C899   1.468       .  S
O519       Cu527   2.016       .  S
O519        C529   1.278       .  A
O520       Cu527   2.015       .  S
O520        C530   1.278       .  A
O521       Cu527   2.026       .  S
O521        C531   1.280       .  A
O522       Cu527   2.028       .  S
O522        C532   1.280       .  A
O523       Cu528   1.992       .  S
O523        C532   1.276       .  A
O524       Cu528   1.991       .  S
O524        C531   1.275       .  A
O525       Cu528   2.001       .  S
O525        C530   1.277       .  A
O526       Cu528   2.005       .  S
O526        C529   1.277       .  A
Cu527      Cu528   2.375       .  S
C529       C3027   1.471       .  S
C530        C963   1.468       .  S
C531       C2976   1.470       .  S
C532       C1011   1.473       .  S
O533       Cu541   2.005       .  S
O533        C543   1.278       .  A
O534       Cu541   2.006       .  S
O534        C544   1.277       .  A
O535       Cu541   2.004       .  S
O535        C545   1.278       .  A
O536       Cu541   2.006       .  S
O536        C546   1.277       .  A
O537       Cu542   2.014       .  S
O537        C546   1.278       .  A
O538       Cu542   2.014       .  S
O538        C545   1.278       .  A
O539       Cu542   2.006       .  S
O539        C544   1.278       .  A
O540       Cu542   2.015       .  S
O540        C543   1.278       .  A
Cu541      Cu542   2.375       .  S
C543        C864   1.472       .  S
C544       C2643   1.468       .  S
C545        C912   1.472       .  S
C546       C2595   1.471       .  S
O547       Cu555   2.006       .  S
O547        C557   1.278       .  A
O548       Cu555   2.005       .  S
O548        C558   1.277       .  A
O549       Cu555   2.007       .  S
O549        C559   1.277       .  A
O550       Cu555   2.004       .  S
O550        C560   1.277       .  A
O551       Cu556   2.003       .  S
O551        C560   1.277       .  A
O552       Cu556   2.015       .  S
O552        C559   1.278       .  A
O553       Cu556   2.004       .  S
O553        C558   1.278       .  A
O554       Cu556   2.006       .  S
O554        C557   1.277       .  A
Cu555      Cu556   2.375       .  S
C557       C1299   1.470       .  S
C558       C1155   1.468       .  S
C559       C1251   1.472       .  S
C560       C1203   1.466       .  S
O561       Cu569   2.002       .  S
O561        C571   1.277       .  A
O562       Cu569   2.003       .  S
O562        C572   1.277       .  A
O563       Cu569   2.001       .  S
O563        C573   1.277       .  A
O564       Cu569   2.003       .  S
O564        C574   1.277       .  A
O565       Cu570   2.013       .  S
O565        C574   1.278       .  A
O566       Cu570   2.009       .  S
O566        C573   1.278       .  A
O567       Cu570   2.016       .  S
O567        C572   1.279       .  A
O568       Cu570   2.023       .  S
O568        C571   1.279       .  A
Cu569      Cu570   2.375       .  S
C571       C1104   1.472       .  S
C572       C1632   1.470       .  S
C573       C1059   1.468       .  S
C574       C1683   1.470       .  S
O575       Cu583   2.013   1_556  S
O575        C585   1.279       .  A
O576       Cu583   2.012       .  S
O576        C586   1.278       .  A
O577       Cu583   2.006       .  S
O577        C587   1.278       .  A
O578       Cu583   2.014   1_556  S
O578        C588   1.278       .  A
O579       Cu584   2.017   1_556  S
O579        C588   1.279       .  A
O580       Cu584   2.017       .  S
O580        C587   1.278       .  A
O581       Cu584   2.005       .  S
O581        C586   1.277       .  A
O582       Cu584   2.004   1_556  S
O582        C585   1.277       .  A
Cu583      Cu584   2.374       .  S
C585       C1907   1.471       .  S
C586       C1283   1.471       .  S
C587       C1808   1.474       .  S
C588       C1379   1.476       .  S
O589       Cu597   2.001       .  S
O589        C599   1.276       .  A
O590       Cu597   2.003       .  S
O590        C600   1.277       .  A
O591       Cu597   2.019       .  S
O591        C601   1.279       .  A
O592       Cu597   2.016       .  S
O592        C602   1.278       .  A
O593       Cu598   2.009       .  S
O593        C602   1.278       .  A
O594       Cu598   2.011       .  S
O594        C601   1.278       .  A
O595       Cu598   2.015       .  S
O595        C600   1.279       .  A
O596       Cu598   2.014       .  S
O596        C599   1.279       .  A
Cu597      Cu598   2.374       .  S
C599       C1347   1.468       .  S
C600       C1587   1.471       .  S
C601       C1395   1.476       .  S
C602       C1539   1.473       .  S
O603       Cu611   2.017       .  S
O603        C613   1.278       .  A
O604       Cu611   2.016   1_655  S
O604        C614   1.279       .  A
O605       Cu611   2.017   1_655  S
O605        C615   1.279       .  A
O606       Cu611   2.014       .  S
O606        C616   1.278       .  A
O607       Cu612   2.004       .  S
O607        C616   1.278       .  A
O608       Cu612   2.002   1_655  S
O608        C615   1.277       .  A
O609       Cu612   2.003   1_655  S
O609        C614   1.277       .  A
O610       Cu612   2.007       .  S
O610        C613   1.278       .  A
Cu611      Cu612   2.374       .  S
C613       C1475   1.474       .  S
C614        C947   1.471       .  S
C615       C1571   1.471       .  S
C616        C848   1.472       .  S
O617       Cu625   2.006       .  S
O617        C627   1.277       .  A
O618       Cu625   2.003       .  S
O618        C628   1.277       .  A
O619       Cu625   2.009       .  S
O619        C629   1.278       .  A
O620       Cu625   2.011       .  S
O620        C630   1.278       .  A
O621       Cu626   2.007       .  S
O621        C630   1.277       .  A
O622       Cu626   2.006       .  S
O622        C629   1.277       .  A
O623       Cu626   2.014       .  S
O623        C628   1.278       .  A
O624       Cu626   2.016       .  S
O624        C627   1.279       .  A
Cu625      Cu626   2.374       .  S
C627       C1779   1.472       .  S
C628       C1443   1.471       .  S
C629       C1731   1.470       .  S
C630       C1491   1.472       .  S
O631       Cu639   2.010       .  S
O631        C641   1.278       .  A
O632       Cu639   2.008   1_554  S
O632        C642   1.277       .  A
O633       Cu639   1.997   1_554  S
O633        C643   1.276       .  A
O634       Cu639   2.000       .  S
O634        C644   1.277       .  A
O635       Cu640   2.013       .  S
O635        C644   1.278       .  A
O636       Cu640   2.018   1_554  S
O636        C643   1.279       .  A
O637       Cu640   2.021   1_554  S
O637        C642   1.279       .  A
O638       Cu640   2.017       .  S
O638        C641   1.278       .  A
Cu639      Cu640   2.374       .  S
C641       C1763   1.475       .  S
C642       C1856   1.474       .  S
C643       C1667   1.471       .  S
C644       C1952   1.470       .  S
O645       Cu653   2.008       .  S
O645        C655   1.277       .  A
O646       Cu653   2.009       .  S
O646        C656   1.278       .  A
O647       Cu653   2.015       .  S
O647        C657   1.278       .  A
O648       Cu653   2.018       .  S
O648        C658   1.279       .  A
O649       Cu654   2.001       .  S
O649        C658   1.277       .  A
O650       Cu654   2.002       .  S
O650        C657   1.277       .  A
O651       Cu654   2.005       .  S
O651        C656   1.277       .  A
O652       Cu654   2.003       .  S
O652        C655   1.277       .  A
Cu653      Cu654   2.375       .  S
C655       C1971   1.468       .  S
C656       C2016   1.470       .  S
C657       C1923   1.472       .  S
C658       C2067   1.472       .  S
O659       Cu667   2.018       .  S
O659        C669   1.279       .  A
O660       Cu667   2.013       .  S
O660        C670   1.278       .  A
O661       Cu667   2.010       .  S
O661        C671   1.277       .  A
O662       Cu667   2.014       .  S
O662        C672   1.279       .  A
O663       Cu668   2.002       .  S
O663        C672   1.276       .  A
O664       Cu668   1.998       .  S
O664        C671   1.277       .  A
O665       Cu668   2.005       .  S
O665        C670   1.277       .  A
O666       Cu668   2.001       .  S
O666        C669   1.277       .  A
Cu667      Cu668   2.375       .  S
C669       C2451   1.470       .  S
C670       C1827   1.471       .  S
C671       C2403   1.468       .  S
C672       C1872   1.470       .  S
O673       Cu681   2.013   1_545  S
O673        C683   1.278       .  A
O674       Cu681   2.018       .  S
O674        C684   1.279       .  A
O675       Cu681   1.997       .  S
O675        C685   1.277       .  A
O676       Cu681   1.995   1_545  S
O676        C686   1.276       .  A
O677       Cu682   2.023       .  S
O677        C686   1.280       .  A
O678       Cu682   2.017   1_565  S
O678        C685   1.278       .  A
O679       Cu682   2.008   1_565  S
O679        C684   1.277       .  A
O680       Cu682   2.013       .  S
O680        C683   1.278       .  A
Cu681      Cu682   2.374   1_565  S
C683       C2048   1.473       .  S
C684       C2672   1.474       .  S
C685       C2144   1.471       .  S
C686       C2579   1.471       .  S
O687       Cu695   2.017       .  S
O687        C697   1.279       .  A
O688       Cu695   2.014       .  S
O688        C698   1.278       .  A
O689       Cu695   2.014       .  S
O689        C699   1.278       .  A
O690       Cu695   2.013       .  S
O690        C700   1.278       .  A
O691       Cu696   2.013       .  S
O691        C700   1.278       .  A
O692       Cu696   2.010       .  S
O692        C699   1.278       .  A
O693       Cu696   1.999       .  S
O693        C698   1.276       .  A
O694       Cu696   1.998       .  S
O694        C697   1.277       .  A
Cu695      Cu696   2.374       .  S
C697       C2307   1.471       .  S
C698       C2163   1.467       .  S
C699       C2355   1.474       .  S
C700       C2115   1.473       .  S
O701       Cu709   2.003       .  S
O701        C711   1.277       .  A
O702       Cu709   2.008   1_556  S
O702        C712   1.277       .  A
O703       Cu709   2.016   1_556  S
O703        C713   1.279       .  A
O704       Cu709   2.017       .  S
O704        C714   1.278       .  A
O705       Cu710   2.003       .  S
O705        C714   1.277       .  A
O706       Cu710   2.009   1_556  S
O706        C713   1.278       .  A
O707       Cu710   2.007   1_556  S
O707        C712   1.278       .  A
O708       Cu710   2.008       .  S
O708        C711   1.277       .  A
Cu709      Cu710   2.374       .  S
C711       C2240   1.467       .  S
C712       C1715   1.470       .  S
C713       C2339   1.474       .  S
C714       C1619   1.473       .  S
O715       Cu723   2.006       .  S
O715        C725   1.277       .  A
O716       Cu723   2.007       .  S
O716        C726   1.277       .  A
O717       Cu723   2.003       .  S
O717        C727   1.277       .  A
O718       Cu723   2.010       .  S
O718        C728   1.278       .  A
O719       Cu724   2.012       .  S
O719        C728   1.278       .  A
O720       Cu724   2.014       .  S
O720        C727   1.278       .  A
O721       Cu724   2.010       .  S
O721        C726   1.278       .  A
O722       Cu724   2.012       .  S
O722        C725   1.278       .  A
Cu723      Cu724   2.375       .  S
C725       C2208   1.471       .  S
C726       C2547   1.467       .  S
C727       C2259   1.470       .  S
C728       C2499   1.472       .  S
O729       Cu737   2.007   1_545  S
O729        C739   1.277       .  A
O730       Cu737   2.013       .  S
O730        C740   1.278       .  A
O731       Cu737   2.014       .  S
O731        C741   1.279       .  A
O732       Cu737   2.013   1_545  S
O732        C742   1.278       .  A
O733       Cu738   1.998   1_545  S
O733        C742   1.277       .  A
O734       Cu738   2.005       .  S
O734        C741   1.277       .  A
O735       Cu738   2.020       .  S
O735        C740   1.279       .  A
O736       Cu738   2.016   1_545  S
O736        C739   1.279       .  A
Cu737      Cu738   2.374       .  S
C739       C2435   1.473       .  S
C740       C2723   1.477       .  S
C741       C2528   1.471       .  S
C742       C2624   1.470       .  S
O743       Cu751   2.004       .  S
O743        C753   1.277       .  A
O744       Cu751   2.006       .  S
O744        C754   1.278       .  A
O745       Cu751   2.017       .  S
O745        C755   1.279       .  A
O746       Cu751   2.013       .  S
O746        C756   1.278       .  A
O747       Cu752   2.009       .  S
O747        C756   1.278       .  A
O748       Cu752   2.016       .  S
O748        C755   1.278       .  A
O749       Cu752   2.016       .  S
O749        C754   1.278       .  A
O750       Cu752   2.017       .  S
O750        C753   1.279       .  A
Cu751      Cu752   2.373       .  S
C753       C2691   1.473       .  S
C754       C2835   1.473       .  S
C755       C2739   1.477       .  S
C756       C2787   1.472       .  S
O757       Cu765   1.992   1_655  S
O757        C767   1.275       .  A
O758       Cu765   1.998       .  S
O758        C768   1.276       .  A
O759       Cu765   2.005       .  S
O759        C769   1.278       .  A
O760       Cu765   2.009   1_655  S
O760        C770   1.278       .  A
O761       Cu766   2.010   1_655  S
O761        C770   1.278       .  A
O762       Cu766   2.008       .  S
O762        C769   1.277       .  A
O763       Cu766   2.015       .  S
O763        C768   1.279       .  A
O764       Cu766   2.011   1_655  S
O764        C767   1.278       .  A
Cu765      Cu766   2.375       .  S
C767       C1139   1.465       .  S
C768       C2819   1.468       .  S
C769       C1043   1.470       .  S
C770       C2912   1.472       .  S
O771       Cu779   1.995       .  S
O771        C781   1.277       .  A
O772       Cu779   1.995       .  S
O772        C782   1.276       .  A
O773       Cu779   1.998       .  S
O773        C783   1.277       .  A
O774       Cu779   2.000       .  S
O774        C784   1.277       .  A
O775       Cu780   2.021       .  S
O775        C784   1.279       .  A
O776       Cu780   2.021       .  S
O776        C783   1.279       .  A
O777       Cu780   2.016       .  S
O777        C782   1.278       .  A
O778       Cu780   2.013       .  S
O778        C781   1.277       .  A
Cu779      Cu780   2.374       .  S
C781       C3123   1.468       .  S
C782       C2883   1.469       .  S
C783       C3075   1.472       .  S
C784       C2931   1.474       .  S
O785       Cu793   2.003   1_565  S
O785        C795   1.277       .  A
O786       Cu793   2.008       .  S
O786        C796   1.278       .  A
O787       Cu793   1.998       .  S
O787        C797   1.276       .  A
O788       Cu793   1.993   1_565  S
O788        C798   1.275       .  A
O789       Cu794   2.026       .  S
O789        C798   1.280       .  A
O790       Cu794   2.025   1_545  S
O790        C797   1.280       .  A
O791       Cu794   1.998   1_545  S
O791        C796   1.276       .  A
O792       Cu794   1.999       .  S
O792        C795   1.277       .  A
Cu793      Cu794   2.375   1_545  S
C795       C3107   1.464       .  S
C796       C2384   1.467       .  S
C797       C3008   1.472       .  S
C798       C2483   1.468       .  S
O799       Cu807   2.004       .  S
O799        C809   1.277       .  A
O800       Cu807   2.004   1_455  S
O800        C810   1.278       .  A
O801       Cu807   2.008   1_455  S
O801        C811   1.278       .  A
O802       Cu807   2.005       .  S
O802        C812   1.277       .  A
O803       Cu808   2.014       .  S
O803        C812   1.279       .  A
O804       Cu808   2.007   1_455  S
O804        C811   1.277       .  A
O805       Cu808   2.012   1_455  S
O805        C810   1.278       .  A
O806       Cu808   2.011       .  S
O806        C809   1.278       .  A
Cu807      Cu808   2.375       .  S
C809       C2867   1.469       .  S
C810       C1424   1.471       .  S
C811       C2771   1.469       .  S
C812       C1523   1.471       .  S
O813       Cu821   2.019       .  S
O813        C823   1.279       .  A
O814       Cu821   2.018   1_545  S
O814        C824   1.279       .  A
O815       Cu821   2.009   1_545  S
O815        C825   1.278       .  A
O816       Cu821   2.016       .  S
O816        C826   1.278       .  A
O817       Cu822   2.004       .  S
O817        C826   1.277       .  A
O818       Cu822   2.003   1_545  S
O818        C825   1.277       .  A
O819       Cu822   1.997   1_545  S
O819        C824   1.276       .  A
O820       Cu822   1.996       .  S
O820        C823   1.276       .  A
Cu821      Cu822   2.375       .  S
C823       C3059   1.468       .  S
C824       C2003   1.470       .  S
C825       C2960   1.468       .  S
C826       C2099   1.472       .  S
O827       Cu835   2.008       .  S
O827        C837   1.277       .  A
O828       Cu835   2.005   1_554  S
O828        C838   1.277       .  A
O829       Cu835   2.021   1_554  S
O829        C839   1.279       .  A
O830       Cu835   2.017       .  S
O830        C840   1.279       .  A
O831       Cu836   2.002       .  S
O831        C840   1.277       .  A
O832       Cu836   2.002   1_554  S
O832        C839   1.277       .  A
O833       Cu836   2.017   1_554  S
O833        C838   1.279       .  A
O834       Cu836   2.018       .  S
O834        C837   1.279       .  A
Cu835      Cu836   2.374       .  S
C837       C2291   1.474       .  S
C838       C1232   1.472       .  S
C839       C2195   1.474       .  S
C840       C1328   1.472       .  S
C841        C846   1.387       .  A
C841        C842   1.397       .  A
C841        S847   1.702       .  A
C842        C843   1.398       .  A
C842        H853   1.083       .  S
C843        C852   1.365       .  A
C843        C844   1.386       .  A
C844        C845   1.406       .  A
C844        S850   1.712       .  A
C845        C846   1.407       .  A
C845        H854   1.083       .  S
C846        C849   1.374       .  A
S847        C848   1.720       .  A
C848        C849   1.390       .  A
C849        H855   1.083       .  S
S850        C851   1.726       .  A
C851        C852   1.384       .  A
C852        H856   1.083       .  S
C857        C862   1.387       .  A
C857        C858   1.405       .  A
C857        S863   1.710       .  A
C858        C859   1.405       .  A
C858        H869   1.083       .  S
C859        C868   1.374       .  A
C859        C860   1.387       .  A
C860        C861   1.399       .  A
C860        S866   1.703       .  A
C861        C862   1.400       .  A
C861        H870   1.083       .  S
C862        C865   1.368       .  A
S863        C864   1.725       .  A
C864        C865   1.385       .  A
C865        H871   1.083       .  S
S866        C867   1.720       .  A
C867        C868   1.387       .  A
C868        H872   1.082       .  S
C873        C878   1.388       .  A
C873        C874   1.403       .  A
C873        S879   1.709       .  A
C874        C875   1.403       .  A
C874        H885   1.083       .  S
C875        C884   1.373       .  A
C875        C876   1.387       .  A
C876        C877   1.401       .  A
C876        S882   1.705       .  A
C877        C878   1.401       .  A
C877        H886   1.083       .  S
C878        C881   1.370       .  A
S879        C880   1.719       .  A
C880        C881   1.382       .  A
C881        H887   1.082       .  S
S882        C883   1.722       .  A
C883        C884   1.386       .  A
C884        H888   1.083       .  S
C889        C894   1.387       .  A
C889        C890   1.398       .  A
C889        S895   1.703       .  A
C890        C891   1.399       .  A
C890        H901   1.083       .  S
C891        C900   1.366       .  A
C891        C892   1.387       .  A
C892        C893   1.402       .  A
C892        S898   1.708       .  A
C893        C894   1.403       .  A
C893        H902   1.083       .  S
C894        C897   1.370       .  A
S895        C896   1.720       .  A
C896        C897   1.385       .  A
C897        H903   1.082       .  S
S898        C899   1.724       .  A
C899        C900   1.384       .  A
C900        H904   1.083       .  S
C905        C910   1.387       .  A
C905        C906   1.404       .  A
C905        S911   1.710       .  A
C906        C907   1.404       .  A
C906        H917   1.083       .  S
C907        C916   1.372       .  A
C907        C908   1.387       .  A
C908        C909   1.398       .  A
C908        S914   1.703       .  A
C909        C910   1.399       .  A
C909        H918   1.083       .  S
C910        C913   1.367       .  A
S911        C912   1.725       .  A
C912        C913   1.385       .  A
C913        H919   1.083       .  S
S914        C915   1.719       .  A
C915        C916   1.386       .  A
C916        H920   1.083       .  S
C921        C926   1.388       .  A
C921        C922   1.403       .  A
C921        S927   1.711       .  A
C922        C923   1.404       .  A
C922        H933   1.083       .  S
C923        C932   1.372       .  A
C923        C924   1.387       .  A
C924        C925   1.402       .  A
C924        S930   1.709       .  A
C925        C926   1.403       .  A
C925        H934   1.083       .  S
C926        C929   1.371       .  A
S927        C928   1.720       .  A
C928        C929   1.383       .  A
C929        H935   1.083       .  S
S930        C931   1.723       .  A
C931        C932   1.387       .  A
C932        H936   1.083       .  S
C937        C942   1.386       .  A
C937        C938   1.403       .  A
C937        S943   1.711       .  A
C938        C939   1.404       .  A
C938        H949   1.083       .  S
C939        C948   1.371       .  A
C939        C940   1.387       .  A
C940        C941   1.399       .  A
C940        S946   1.706       .  A
C941        C942   1.401       .  A
C941        H950   1.083       .  S
C942        C945   1.366       .  A
S943        C944   1.724       .  A
C944        C945   1.386       .  A
C945        H951   1.083       .  S
S946        C947   1.722       .  A
C947        C948   1.388       .  A
C948        H952   1.083       .  S
C953        C958   1.386       .  A
C953        C954   1.406       .  A
C953        S959   1.714       .  A
C954        C955   1.407       .  A
C954        H965   1.083       .  S
C955        C964   1.374       .  A
C955        C956   1.387       .  A
C956        C957   1.396       .  A
C956        S962   1.701       .  A
C957        C958   1.397       .  A
C957        H966   1.083       .  S
C958        C961   1.363       .  A
S959        C960   1.726       .  A
C960        C961   1.384       .  A
C961        H967   1.083       .  S
S962        C963   1.719       .  A
C963        C964   1.389       .  A
C964        H968   1.083       .  S
C969        C974   1.388       .  A
C969        C970   1.402       .  A
C969        S975   1.709       .  A
C970        C971   1.403       .  A
C970        H981   1.083       .  S
C971        C980   1.372       .  A
C971        C972   1.387       .  A
C972        C973   1.404       .  A
C972        S978   1.711       .  A
C973        C974   1.404       .  A
C973        H982   1.083       .  S
C974        C977   1.373       .  A
S975        C976   1.719       .  A
C976        C977   1.384       .  A
C977        H983   1.082       .  S
S978        C979   1.723       .  A
C979        C980   1.386       .  A
C980        H984   1.083       .  S
C985        C990   1.387       .  A
C985        C986   1.401       .  A
C985        S991   1.706       .  A
C986        C987   1.402       .  A
C986        H997   1.083       .  S
C987        C996   1.369       .  A
C987        C988   1.386       .  A
C988        C989   1.402       .  A
C988        S994   1.707       .  A
C989        C990   1.403       .  A
C989        H998   1.083       .  S
C990        C993   1.371       .  A
S991        C992   1.723       .  A
C992        C993   1.387       .  A
C993        H999   1.083       .  S
S994        C995   1.723       .  A
C995        C996   1.386       .  A
C996       H1000   1.083       .  S
C1001      C1006   1.387       .  A
C1001      C1002   1.397       .  A
C1001      S1007   1.702       .  A
C1002      C1003   1.399       .  A
C1002      H1013   1.083       .  S
C1003      C1012   1.366       .  A
C1003      C1004   1.386       .  A
C1004      C1005   1.406       .  A
C1004      S1010   1.714       .  A
C1005      C1006   1.407       .  A
C1005      H1014   1.083       .  S
C1006      C1009   1.374       .  A
S1007      C1008   1.720       .  A
C1008      C1009   1.388       .  A
C1009      H1015   1.083       .  S
S1010      C1011   1.725       .  A
C1011      C1012   1.385       .  A
C1012      H1016   1.083       .  S
C1017      C1022   1.388       .  A
C1017      C1018   1.403       .  A
C1017      S1023   1.710       .  A
C1018      C1019   1.404       .  A
C1018      H1029   1.083       .  S
C1019      C1028   1.373       .  A
C1019      C1020   1.387       .  A
C1020      C1021   1.400       .  A
C1020      S1026   1.704       .  A
C1021      C1022   1.400       .  A
C1021      H1030   1.083       .  S
C1022      C1025   1.368       .  A
S1023      C1024   1.720       .  A
C1024      C1025   1.381       .  A
C1025      H1031   1.083       .  S
S1026      C1027   1.721       .  A
C1027      C1028   1.387       .  A
C1028      H1032   1.083       .  S
C1033      C1038   1.388       .  A
C1033      C1034   1.399       .  A
C1033      S1039   1.704       .  A
C1034      C1035   1.400       .  A
C1034      H1045   1.083       .  S
C1035      C1044   1.367       .  A
C1035      C1036   1.387       .  A
C1036      C1037   1.402       .  A
C1036      S1042   1.708       .  A
C1037      C1038   1.403       .  A
C1037      H1046   1.083       .  S
C1038      C1041   1.370       .  A
S1039      C1040   1.719       .  A
C1040      C1041   1.384       .  A
C1041      H1047   1.083       .  S
S1042      C1043   1.724       .  A
C1043      C1044   1.385       .  A
C1044      H1048   1.083       .  S
C1049      C1054   1.387       .  A
C1049      C1050   1.400       .  A
C1049      S1055   1.705       .  A
C1050      C1051   1.401       .  A
C1050      H1061   1.083       .  S
C1051      C1060   1.368       .  A
C1051      C1052   1.387       .  A
C1052      C1053   1.400       .  A
C1052      S1058   1.706       .  A
C1053      C1054   1.401       .  A
C1053      H1062   1.083       .  S
C1054      C1057   1.367       .  A
S1055      C1056   1.720       .  A
C1056      C1057   1.383       .  A
C1057      H1063   1.082       .  S
S1058      C1059   1.722       .  A
C1059      C1060   1.386       .  A
C1060      H1064   1.083       .  S
C1065      C1070   1.387       .  A
C1065      C1066   1.402       .  A
C1065      S1071   1.707       .  A
C1066      C1067   1.402       .  A
C1066      H1077   1.083       .  S
C1067      C1076   1.371       .  A
C1067      C1068   1.388       .  A
C1068      C1069   1.403       .  A
C1068      S1074   1.710       .  A
C1069      C1070   1.404       .  A
C1069      H1078   1.083       .  S
C1070      C1073   1.374       .  A
S1071      C1072   1.723       .  A
C1072      C1073   1.387       .  A
C1073      H1079   1.083       .  S
S1074      C1075   1.720       .  A
C1075      C1076   1.383       .  A
C1076      H1080   1.083       .  S
C1081      C1086   1.386       .  A
C1081      C1082   1.401       .  A
C1081      S1087   1.706       .  A
C1082      C1083   1.402       .  A
C1082      H1093   1.083       .  S
C1083      C1092   1.370       .  A
C1083      C1084   1.387       .  A
C1084      C1085   1.402       .  A
C1084      S1090   1.708       .  A
C1085      C1086   1.403       .  A
C1085      H1094   1.083       .  S
C1086      C1089   1.371       .  A
S1087      C1088   1.723       .  A
C1088      C1089   1.386       .  A
C1089      H1095   1.081       .  S
S1090      C1091   1.724       .  A
C1091      C1092   1.387       .  A
C1092      H1096   1.083       .  S
C1097      C1102   1.387       .  A
C1097      C1098   1.399       .  A
C1097      S1103   1.704       .  A
C1098      C1099   1.400       .  A
C1098      H1109   1.083       .  S
C1099      C1108   1.369       .  A
C1099      C1100   1.386       .  A
C1100      C1101   1.405       .  A
C1100      S1106   1.711       .  A
C1101      C1102   1.406       .  A
C1101      H1110   1.083       .  S
C1102      C1105   1.374       .  A
S1103      C1104   1.721       .  A
C1104      C1105   1.389       .  A
C1105      H1111   1.083       .  S
S1106      C1107   1.725       .  A
C1107      C1108   1.385       .  A
C1108      H1112   1.083       .  S
C1113      C1118   1.389       .  A
C1113      C1114   1.403       .  A
C1113      S1119   1.709       .  A
C1114      C1115   1.403       .  A
C1114      H1125   1.083       .  S
C1115      C1124   1.373       .  A
C1115      C1116   1.388       .  A
C1116      C1117   1.400       .  A
C1116      S1122   1.704       .  A
C1117      C1118   1.400       .  A
C1117      H1126   1.083       .  S
C1118      C1121   1.369       .  A
S1119      C1120   1.720       .  A
C1120      C1121   1.381       .  A
C1121      H1127   1.083       .  S
S1122      C1123   1.721       .  A
C1123      C1124   1.386       .  A
C1124      H1128   1.083       .  S
C1129      C1134   1.387       .  A
C1129      C1130   1.402       .  A
C1129      S1135   1.707       .  A
C1130      C1131   1.403       .  A
C1130      H1141   1.083       .  S
C1131      C1140   1.370       .  A
C1131      C1132   1.388       .  A
C1132      C1133   1.397       .  A
C1132      S1138   1.701       .  A
C1133      C1134   1.398       .  A
C1133      H1142   1.083       .  S
C1134      C1137   1.364       .  A
S1135      C1136   1.723       .  A
C1136      C1137   1.382       .  A
C1137      H1143   1.083       .  S
S1138      C1139   1.720       .  A
C1139      C1140   1.386       .  A
C1140      H1144   1.083       .  S
C1145      C1150   1.387       .  A
C1145      C1146   1.400       .  A
C1145      S1151   1.707       .  A
C1146      C1147   1.402       .  A
C1146      H1157   1.083       .  S
C1147      C1156   1.368       .  A
C1147      C1148   1.387       .  A
C1148      C1149   1.399       .  A
C1148      S1154   1.706       .  A
C1149      C1150   1.400       .  A
C1149      H1158   1.083       .  S
C1150      C1153   1.366       .  A
S1151      C1152   1.720       .  A
C1152      C1153   1.383       .  A
C1153      H1159   1.083       .  S
S1154      C1155   1.722       .  A
C1155      C1156   1.386       .  A
C1156      H1160   1.083       .  S
C1161      C1166   1.388       .  A
C1161      C1162   1.402       .  A
C1161      S1167   1.709       .  A
C1162      C1163   1.403       .  A
C1162      H1173   1.083       .  S
C1163      C1172   1.372       .  A
C1163      C1164   1.387       .  A
C1164      C1165   1.401       .  A
C1164      S1170   1.707       .  A
C1165      C1166   1.402       .  A
C1165      H1174   1.083       .  S
C1166      C1169   1.370       .  A
S1167      C1168   1.720       .  A
C1168      C1169   1.383       .  A
C1169      H1175   1.083       .  S
S1170      C1171   1.721       .  A
C1171      C1172   1.385       .  A
C1172      H1176   1.083       .  S
C1177      C1182   1.387       .  A
C1177      C1178   1.398       .  A
C1177      S1183   1.705       .  A
C1178      C1179   1.400       .  A
C1178      H1189   1.083       .  S
C1179      C1188   1.365       .  A
C1179      C1180   1.387       .  A
C1180      C1181   1.399       .  A
C1180      S1186   1.705       .  A
C1181      C1182   1.401       .  A
C1181      H1190   1.083       .  S
C1182      C1185   1.366       .  A
S1183      C1184   1.721       .  A
C1184      C1185   1.384       .  A
C1185      H1191   1.083       .  S
S1186      C1187   1.721       .  A
C1187      C1188   1.384       .  A
C1188      H1192   1.083       .  S
C1193      C1198   1.386       .  A
C1193      C1194   1.400       .  A
C1193      S1199   1.706       .  A
C1194      C1195   1.402       .  A
C1194      H1205   1.083       .  S
C1195      C1204   1.368       .  A
C1195      C1196   1.387       .  A
C1196      C1197   1.398       .  A
C1196      S1202   1.705       .  A
C1197      C1198   1.400       .  A
C1197      H1206   1.083       .  S
C1198      C1201   1.365       .  A
S1199      C1200   1.723       .  A
C1200      C1201   1.386       .  A
C1201      H1207   1.083       .  S
S1202      C1203   1.721       .  A
C1203      C1204   1.386       .  A
C1204      H1208   1.083       .  S
C1209      C1214   1.388       .  A
C1209      C1210   1.405       .  A
C1209      S1215   1.711       .  A
C1210      C1211   1.405       .  A
C1210      H1221   1.083       .  S
C1211      C1220   1.376       .  A
C1211      C1212   1.387       .  A
C1212      C1213   1.401       .  A
C1212      S1218   1.704       .  A
C1213      C1214   1.401       .  A
C1213      H1222   1.083       .  S
C1214      C1217   1.371       .  A
S1215      C1216   1.722       .  A
C1216      C1217   1.382       .  A
C1217      H1223   1.082       .  S
S1218      C1219   1.722       .  A
C1219      C1220   1.388       .  A
C1220      H1224   1.083       .  S
C1225      C1230   1.387       .  A
C1225      C1226   1.403       .  A
C1225      S1231   1.707       .  A
C1226      C1227   1.403       .  A
C1226      H1237   1.083       .  S
C1227      C1236   1.372       .  A
C1227      C1228   1.386       .  A
C1228      C1229   1.401       .  A
C1228      S1234   1.705       .  A
C1229      C1230   1.401       .  A
C1229      H1238   1.083       .  S
C1230      C1233   1.371       .  A
S1231      C1232   1.724       .  A
C1232      C1233   1.386       .  A
C1233      H1239   1.083       .  S
S1234      C1235   1.722       .  A
C1235      C1236   1.387       .  A
C1236      H1240   1.081       .  S
C1241      C1246   1.386       .  A
C1241      C1242   1.404       .  A
C1241      S1247   1.712       .  A
C1242      C1243   1.405       .  A
C1242      H1253   1.083       .  S
C1243      C1252   1.372       .  A
C1243      C1244   1.387       .  A
C1244      C1245   1.400       .  A
C1244      S1250   1.706       .  A
C1245      C1246   1.401       .  A
C1245      H1254   1.083       .  S
C1246      C1249   1.368       .  A
S1247      C1248   1.724       .  A
C1248      C1249   1.386       .  A
C1249      H1255   1.083       .  S
S1250      C1251   1.722       .  A
C1251      C1252   1.388       .  A
C1252      H1256   1.083       .  S
C1257      C1262   1.387       .  A
C1257      C1258   1.402       .  A
C1257      S1263   1.707       .  A
C1258      C1259   1.402       .  A
C1258      H1269   1.083       .  S
C1259      C1268   1.370       .  A
C1259      C1260   1.388       .  A
C1260      C1261   1.402       .  A
C1260      S1266   1.708       .  A
C1261      C1262   1.403       .  A
C1261      H1270   1.083       .  S
C1262      C1265   1.371       .  A
S1263      C1264   1.722       .  A
C1264      C1265   1.385       .  A
C1265      H1271   1.083       .  S
S1266      C1267   1.720       .  A
C1267      C1268   1.382       .  A
C1268      H1272   1.083       .  S
C1273      C1278   1.387       .  A
C1273      C1274   1.401       .  A
C1273      S1279   1.708       .  A
C1274      C1275   1.402       .  A
C1274      H1285   1.083       .  S
C1275      C1284   1.369       .  A
C1275      C1276   1.387       .  A
C1276      C1277   1.401       .  A
C1276      S1282   1.708       .  A
C1277      C1278   1.402       .  A
C1277      H1286   1.083       .  S
C1278      C1281   1.368       .  A
S1279      C1280   1.720       .  A
C1280      C1281   1.384       .  A
C1281      H1287   1.083       .  S
S1282      C1283   1.723       .  A
C1283      C1284   1.386       .  A
C1284      H1288   1.083       .  S
C1289      C1294   1.387       .  A
C1289      C1290   1.400       .  A
C1289      S1295   1.705       .  A
C1290      C1291   1.401       .  A
C1290      H1301   1.083       .  S
C1291      C1300   1.368       .  A
C1291      C1292   1.387       .  A
C1292      C1293   1.402       .  A
C1292      S1298   1.707       .  A
C1293      C1294   1.402       .  A
C1293      H1302   1.083       .  S
C1294      C1297   1.370       .  A
S1295      C1296   1.721       .  A
C1296      C1297   1.384       .  A
C1297      H1303   1.082       .  S
S1298      C1299   1.723       .  A
C1299      C1300   1.385       .  A
C1300      H1304   1.083       .  S
C1305      C1310   1.388       .  A
C1305      C1306   1.405       .  A
C1305      S1311   1.711       .  A
C1306      C1307   1.405       .  A
C1306      H1317   1.083       .  S
C1307      C1316   1.375       .  A
C1307      C1308   1.387       .  A
C1308      C1309   1.401       .  A
C1308      S1314   1.704       .  A
C1309      C1310   1.401       .  A
C1309      H1318   1.083       .  S
C1310      C1313   1.370       .  A
S1311      C1312   1.720       .  A
C1312      C1313   1.382       .  A
C1313      H1319   1.083       .  S
S1314      C1315   1.723       .  A
C1315      C1316   1.388       .  A
C1316      H1320   1.083       .  S
C1321      C1326   1.387       .  A
C1321      C1322   1.402       .  A
C1321      S1327   1.709       .  A
C1322      C1323   1.403       .  A
C1322      H1333   1.083       .  S
C1323      C1332   1.371       .  A
C1323      C1324   1.387       .  A
C1324      C1325   1.400       .  A
C1324      S1330   1.705       .  A
C1325      C1326   1.401       .  A
C1325      H1334   1.083       .  S
C1326      C1329   1.368       .  A
S1327      C1328   1.724       .  A
C1328      C1329   1.386       .  A
C1329      H1335   1.083       .  S
S1330      C1331   1.721       .  A
C1331      C1332   1.386       .  A
C1332      H1336   1.082       .  S
C1337      C1342   1.386       .  A
C1337      C1338   1.402       .  A
C1337      S1343   1.709       .  A
C1338      C1339   1.404       .  A
C1338      H1349   1.083       .  S
C1339      C1348   1.371       .  A
C1339      C1340   1.387       .  A
C1340      C1341   1.399       .  A
C1340      S1346   1.705       .  A
C1341      C1342   1.401       .  A
C1341      H1350   1.083       .  S
C1342      C1345   1.367       .  A
S1343      C1344   1.724       .  A
C1344      C1345   1.385       .  A
C1345      H1351   1.083       .  S
S1346      C1347   1.721       .  A
C1347      C1348   1.386       .  A
C1348      H1352   1.083       .  S
C1353      C1358   1.388       .  A
C1353      C1354   1.401       .  A
C1353      S1359   1.708       .  A
C1354      C1355   1.402       .  A
C1354      H1365   1.083       .  S
C1355      C1364   1.369       .  A
C1355      C1356   1.387       .  A
C1356      C1357   1.403       .  A
C1356      S1362   1.711       .  A
C1357      C1358   1.404       .  A
C1357      H1366   1.083       .  S
C1358      C1361   1.371       .  A
S1359      C1360   1.718       .  A
C1360      C1361   1.384       .  A
C1361      H1367   1.083       .  S
S1362      C1363   1.723       .  A
C1363      C1364   1.385       .  A
C1364      H1368   1.083       .  S
C1369      C1374   1.387       .  A
C1369      C1370   1.403       .  A
C1369      S1375   1.706       .  A
C1370      C1371   1.403       .  A
C1370      H1381   1.083       .  S
C1371      C1380   1.373       .  A
C1371      C1372   1.386       .  A
C1372      C1373   1.403       .  A
C1372      S1378   1.709       .  A
C1373      C1374   1.404       .  A
C1373      H1382   1.083       .  S
C1374      C1377   1.374       .  A
S1375      C1376   1.723       .  A
C1376      C1377   1.386       .  A
C1377      H1383   1.082       .  S
S1378      C1379   1.724       .  A
C1379      C1380   1.388       .  A
C1380      H1384   1.083       .  S
C1385      C1390   1.385       .  A
C1385      C1386   1.405       .  A
C1385      S1391   1.715       .  A
C1386      C1387   1.407       .  A
C1386      H1397   1.083       .  S
C1387      C1396   1.373       .  A
C1387      C1388   1.386       .  A
C1388      C1389   1.400       .  A
C1388      S1394   1.709       .  A
C1389      C1390   1.403       .  A
C1389      H1398   1.083       .  S
C1390      C1393   1.368       .  A
S1391      C1392   1.725       .  A
C1392      C1393   1.388       .  A
C1393      H1399   1.083       .  S
S1394      C1395   1.722       .  A
C1395      C1396   1.390       .  A
C1396      H1400   1.083       .  S
C1401      C1406   1.388       .  A
C1401      C1402   1.403       .  A
C1401      S1407   1.710       .  A
C1402      C1403   1.404       .  A
C1402      H1413   1.083       .  S
C1403      C1412   1.373       .  A
C1403      C1404   1.387       .  A
C1404      C1405   1.402       .  A
C1404      S1410   1.708       .  A
C1405      C1406   1.403       .  A
C1405      H1414   1.083       .  S
C1406      C1409   1.372       .  A
S1407      C1408   1.721       .  A
C1408      C1409   1.383       .  A
C1409      H1415   1.082       .  S
S1410      C1411   1.724       .  A
C1411      C1412   1.388       .  A
C1412      H1416   1.083       .  S
C1417      C1422   1.387       .  A
C1417      C1418   1.403       .  A
C1417      S1423   1.709       .  A
C1418      C1419   1.404       .  A
C1418      H1429   1.083       .  S
C1419      C1428   1.371       .  A
C1419      C1420   1.388       .  A
C1420      C1421   1.399       .  A
C1420      S1426   1.705       .  A
C1421      C1422   1.400       .  A
C1421      H1430   1.083       .  S
C1422      C1425   1.368       .  A
S1423      C1424   1.724       .  A
C1424      C1425   1.385       .  A
C1425      H1431   1.083       .  S
S1426      C1427   1.718       .  A
C1427      C1428   1.385       .  A
C1428      H1432   1.083       .  S
C1433      C1438   1.387       .  A
C1433      C1434   1.399       .  A
C1433      S1439   1.703       .  A
C1434      C1435   1.400       .  A
C1434      H1445   1.083       .  S
C1435      C1444   1.367       .  A
C1435      C1436   1.387       .  A
C1436      C1437   1.403       .  A
C1436      S1442   1.709       .  A
C1437      C1438   1.404       .  A
C1437      H1446   1.083       .  S
C1438      C1441   1.372       .  A
S1439      C1440   1.721       .  A
C1440      C1441   1.386       .  A
C1441      H1447   1.081       .  S
S1442      C1443   1.724       .  A
C1443      C1444   1.385       .  A
C1444      H1448   1.083       .  S
C1449      C1454   1.388       .  A
C1449      C1450   1.401       .  A
C1449      S1455   1.708       .  A
C1450      C1451   1.402       .  A
C1450      H1461   1.083       .  S
C1451      C1460   1.371       .  A
C1451      C1452   1.387       .  A
C1452      C1453   1.404       .  A
C1452      S1458   1.710       .  A
C1453      C1454   1.404       .  A
C1453      H1462   1.083       .  S
C1454      C1457   1.372       .  A
S1455      C1456   1.719       .  A
C1456      C1457   1.384       .  A
C1457      H1463   1.082       .  S
S1458      C1459   1.724       .  A
C1459      C1460   1.387       .  A
C1460      H1464   1.083       .  S
C1465      C1470   1.387       .  A
C1465      C1466   1.400       .  A
C1465      S1471   1.706       .  A
C1466      C1467   1.401       .  A
C1466      H1477   1.083       .  S
C1467      C1476   1.369       .  A
C1467      C1468   1.387       .  A
C1468      C1469   1.404       .  A
C1468      S1474   1.710       .  A
C1469      C1470   1.405       .  A
C1469      H1478   1.083       .  S
C1470      C1473   1.373       .  A
S1471      C1472   1.719       .  A
C1472      C1473   1.385       .  A
C1473      H1479   1.083       .  S
S1474      C1475   1.725       .  A
C1475      C1476   1.386       .  A
C1476      H1480   1.083       .  S
C1481      C1486   1.387       .  A
C1481      C1482   1.402       .  A
C1481      S1487   1.706       .  A
C1482      C1483   1.402       .  A
C1482      H1493   1.083       .  S
C1483      C1492   1.371       .  A
C1483      C1484   1.387       .  A
C1484      C1485   1.401       .  A
C1484      S1490   1.706       .  A
C1485      C1486   1.402       .  A
C1485      H1494   1.083       .  S
C1486      C1489   1.370       .  A
S1487      C1488   1.721       .  A
C1488      C1489   1.385       .  A
C1489      H1495   1.081       .  S
S1490      C1491   1.723       .  A
C1491      C1492   1.387       .  A
C1492      H1496   1.083       .  S
C1497      C1502   1.388       .  A
C1497      C1498   1.400       .  A
C1497      S1503   1.706       .  A
C1498      C1499   1.401       .  A
C1498      H1509   1.083       .  S
C1499      C1508   1.370       .  A
C1499      C1500   1.387       .  A
C1500      C1501   1.403       .  A
C1500      S1506   1.708       .  A
C1501      C1502   1.404       .  A
C1501      H1510   1.083       .  S
C1502      C1505   1.372       .  A
S1503      C1504   1.718       .  A
C1504      C1505   1.384       .  A
C1505      H1511   1.082       .  S
S1506      C1507   1.724       .  A
C1507      C1508   1.386       .  A
C1508      H1512   1.083       .  S
C1513      C1518   1.387       .  A
C1513      C1514   1.402       .  A
C1513      S1519   1.709       .  A
C1514      C1515   1.403       .  A
C1514      H1525   1.083       .  S
C1515      C1524   1.371       .  A
C1515      C1516   1.387       .  A
C1516      C1517   1.400       .  A
C1516      S1522   1.707       .  A
C1517      C1518   1.402       .  A
C1517      H1526   1.083       .  S
C1518      C1521   1.368       .  A
S1519      C1520   1.722       .  A
C1520      C1521   1.385       .  A
C1521      H1527   1.083       .  S
S1522      C1523   1.723       .  A
C1523      C1524   1.387       .  A
C1524      H1528   1.083       .  S
C1529      C1534   1.386       .  A
C1529      C1530   1.402       .  A
C1529      S1535   1.709       .  A
C1530      C1531   1.404       .  A
C1530      H1541   1.083       .  S
C1531      C1540   1.371       .  A
C1531      C1532   1.387       .  A
C1532      C1533   1.401       .  A
C1532      S1538   1.708       .  A
C1533      C1534   1.402       .  A
C1533      H1542   1.083       .  S
C1534      C1537   1.369       .  A
S1535      C1536   1.724       .  A
C1536      C1537   1.387       .  A
C1537      H1543   1.083       .  S
S1538      C1539   1.723       .  A
C1539      C1540   1.388       .  A
C1540      H1544   1.083       .  S
C1545      C1550   1.388       .  A
C1545      C1546   1.403       .  A
C1545      S1551   1.710       .  A
C1546      C1547   1.403       .  A
C1546      H1557   1.083       .  S
C1547      C1556   1.372       .  A
C1547      C1548   1.387       .  A
C1548      C1549   1.402       .  A
C1548      S1554   1.708       .  A
C1549      C1550   1.402       .  A
C1549      H1558   1.083       .  S
C1550      C1553   1.371       .  A
S1551      C1552   1.720       .  A
C1552      C1553   1.383       .  A
C1553      H1559   1.083       .  S
S1554      C1555   1.723       .  A
C1555      C1556   1.386       .  A
C1556      H1560   1.083       .  S
C1561      C1566   1.387       .  A
C1561      C1562   1.401       .  A
C1561      S1567   1.704       .  A
C1562      C1563   1.401       .  A
C1562      H1573   1.083       .  S
C1563      C1572   1.369       .  A
C1563      C1564   1.387       .  A
C1564      C1565   1.402       .  A
C1564      S1570   1.708       .  A
C1565      C1566   1.402       .  A
C1565      H1574   1.083       .  S
C1566      C1569   1.371       .  A
S1567      C1568   1.722       .  A
C1568      C1569   1.385       .  A
C1569      H1575   1.082       .  S
S1570      C1571   1.723       .  A
C1571      C1572   1.386       .  A
C1572      H1576   1.083       .  S
C1577      C1582   1.386       .  A
C1577      C1578   1.402       .  A
C1577      S1583   1.710       .  A
C1578      C1579   1.404       .  A
C1578      H1589   1.083       .  S
C1579      C1588   1.371       .  A
C1579      C1580   1.387       .  A
C1580      C1581   1.399       .  A
C1580      S1586   1.705       .  A
C1581      C1582   1.401       .  A
C1581      H1590   1.083       .  S
C1582      C1585   1.366       .  A
S1583      C1584   1.723       .  A
C1584      C1585   1.386       .  A
C1585      H1591   1.083       .  S
S1586      C1587   1.722       .  A
C1587      C1588   1.387       .  A
C1588      H1592   1.083       .  S
C1593      C1598   1.388       .  A
C1593      C1594   1.401       .  A
C1593      S1599   1.707       .  A
C1594      C1595   1.402       .  A
C1594      H1605   1.083       .  S
C1595      C1604   1.370       .  A
C1595      C1596   1.387       .  A
C1596      C1597   1.404       .  A
C1596      S1602   1.710       .  A
C1597      C1598   1.404       .  A
C1597      H1606   1.083       .  S
C1598      C1601   1.373       .  A
S1599      C1600   1.719       .  A
C1600      C1601   1.384       .  A
C1601      H1607   1.082       .  S
S1602      C1603   1.724       .  A
C1603      C1604   1.385       .  A
C1604      H1608   1.083       .  S
C1609      C1614   1.388       .  A
C1609      C1610   1.400       .  A
C1609      S1615   1.704       .  A
C1610      C1611   1.401       .  A
C1610      H1621   1.083       .  S
C1611      C1620   1.368       .  A
C1611      C1612   1.387       .  A
C1612      C1613   1.403       .  A
C1612      S1618   1.709       .  A
C1613      C1614   1.404       .  A
C1613      H1622   1.083       .  S
C1614      C1617   1.372       .  A
S1615      C1616   1.720       .  A
C1616      C1617   1.385       .  A
C1617      H1623   1.083       .  S
S1618      C1619   1.724       .  A
C1619      C1620   1.386       .  A
C1620      H1624   1.083       .  S
C1625      C1630   1.387       .  A
C1625      C1626   1.400       .  A
C1625      S1631   1.705       .  A
C1626      C1627   1.401       .  A
C1626      H1637   1.083       .  S
C1627      C1636   1.368       .  A
C1627      C1628   1.386       .  A
C1628      C1629   1.403       .  A
C1628      S1634   1.708       .  A
C1629      C1630   1.404       .  A
C1629      H1638   1.083       .  S
C1630      C1633   1.372       .  A
S1631      C1632   1.722       .  A
C1632      C1633   1.387       .  A
C1633      H1639   1.083       .  S
S1634      C1635   1.724       .  A
C1635      C1636   1.385       .  A
C1636      H1640   1.083       .  S
C1641      C1646   1.387       .  A
C1641      C1642   1.400       .  A
C1641      S1647   1.705       .  A
C1642      C1643   1.400       .  A
C1642      H1653   1.083       .  S
C1643      C1652   1.369       .  A
C1643      C1644   1.388       .  A
C1644      C1645   1.404       .  A
C1644      S1650   1.711       .  A
C1645      C1646   1.404       .  A
C1645      H1654   1.083       .  S
C1646      C1649   1.373       .  A
S1647      C1648   1.722       .  A
C1648      C1649   1.387       .  A
C1649      H1655   1.083       .  S
S1650      C1651   1.720       .  A
C1651      C1652   1.381       .  A
C1652      H1656   1.083       .  S
C1657      C1662   1.387       .  A
C1657      C1658   1.401       .  A
C1657      S1663   1.705       .  A
C1658      C1659   1.402       .  A
C1658      H1669   1.083       .  S
C1659      C1668   1.369       .  A
C1659      C1660   1.387       .  A
C1660      C1661   1.401       .  A
C1660      S1666   1.708       .  A
C1661      C1662   1.402       .  A
C1661      H1670   1.083       .  S
C1662      C1665   1.371       .  A
S1663      C1664   1.723       .  A
C1664      C1665   1.385       .  A
C1665      H1671   1.081       .  S
S1666      C1667   1.722       .  A
C1667      C1668   1.387       .  A
C1668      H1672   1.083       .  S
C1673      C1678   1.386       .  A
C1673      C1674   1.402       .  A
C1673      S1679   1.707       .  A
C1674      C1675   1.403       .  A
C1674      H1685   1.083       .  S
C1675      C1684   1.371       .  A
C1675      C1676   1.387       .  A
C1676      C1677   1.400       .  A
C1676      S1682   1.704       .  A
C1677      C1678   1.400       .  A
C1677      H1686   1.083       .  S
C1678      C1681   1.368       .  A
S1679      C1680   1.723       .  A
C1680      C1681   1.385       .  A
C1681      H1687   1.083       .  S
S1682      C1683   1.722       .  A
C1683      C1684   1.387       .  A
C1684      H1688   1.083       .  S
C1689      C1694   1.388       .  A
C1689      C1690   1.400       .  A
C1689      S1695   1.706       .  A
C1690      C1691   1.401       .  A
C1690      H1701   1.083       .  S
C1691      C1700   1.369       .  A
C1691      C1692   1.387       .  A
C1692      C1693   1.403       .  A
C1692      S1698   1.709       .  A
C1693      C1694   1.404       .  A
C1693      H1702   1.083       .  S
C1694      C1697   1.371       .  A
S1695      C1696   1.718       .  A
C1696      C1697   1.384       .  A
C1697      H1703   1.083       .  S
S1698      C1699   1.724       .  A
C1699      C1700   1.385       .  A
C1700      H1704   1.083       .  S
C1705      C1710   1.387       .  A
C1705      C1706   1.400       .  A
C1705      S1711   1.704       .  A
C1706      C1707   1.401       .  A
C1706      H1717   1.083       .  S
C1707      C1716   1.369       .  A
C1707      C1708   1.387       .  A
C1708      C1709   1.401       .  A
C1708      S1714   1.707       .  A
C1709      C1710   1.402       .  A
C1709      H1718   1.083       .  S
C1710      C1713   1.370       .  A
S1711      C1712   1.721       .  A
C1712      C1713   1.385       .  A
C1713      H1719   1.083       .  S
S1714      C1715   1.723       .  A
C1715      C1716   1.386       .  A
C1716      H1720   1.083       .  S
C1721      C1726   1.387       .  A
C1721      C1722   1.399       .  A
C1721      S1727   1.703       .  A
C1722      C1723   1.400       .  A
C1722      H1733   1.083       .  S
C1723      C1732   1.368       .  A
C1723      C1724   1.387       .  A
C1724      C1725   1.402       .  A
C1724      S1730   1.708       .  A
C1725      C1726   1.403       .  A
C1725      H1734   1.083       .  S
C1726      C1729   1.371       .  A
S1727      C1728   1.720       .  A
C1728      C1729   1.385       .  A
C1729      H1735   1.082       .  S
S1730      C1731   1.724       .  A
C1731      C1732   1.385       .  A
C1732      H1736   1.083       .  S
C1737      C1742   1.389       .  A
C1737      C1738   1.399       .  A
C1737      S1743   1.706       .  A
C1738      C1739   1.400       .  A
C1738      H1749   1.083       .  S
C1739      C1748   1.368       .  A
C1739      C1740   1.387       .  A
C1740      C1741   1.404       .  A
C1740      S1746   1.711       .  A
C1741      C1742   1.405       .  A
C1741      H1750   1.083       .  S
C1742      C1745   1.372       .  A
S1743      C1744   1.717       .  A
C1744      C1745   1.384       .  A
C1745      H1751   1.083       .  S
S1746      C1747   1.724       .  A
C1747      C1748   1.384       .  A
C1748      H1752   1.083       .  S
C1753      C1758   1.387       .  A
C1753      C1754   1.400       .  A
C1753      S1759   1.705       .  A
C1754      C1755   1.401       .  A
C1754      H1765   1.083       .  S
C1755      C1764   1.369       .  A
C1755      C1756   1.386       .  A
C1756      C1757   1.405       .  A
C1756      S1762   1.712       .  A
C1757      C1758   1.406       .  A
C1757      H1766   1.083       .  S
C1758      C1761   1.374       .  A
S1759      C1760   1.719       .  A
C1760      C1761   1.387       .  A
C1761      H1767   1.083       .  S
S1762      C1763   1.726       .  A
C1763      C1764   1.386       .  A
C1764      H1768   1.083       .  S
C1769      C1774   1.386       .  A
C1769      C1770   1.403       .  A
C1769      S1775   1.709       .  A
C1770      C1771   1.404       .  A
C1770      H1781   1.083       .  S
C1771      C1780   1.372       .  A
C1771      C1772   1.387       .  A
C1772      C1773   1.401       .  A
C1772      S1778   1.707       .  A
C1773      C1774   1.402       .  A
C1773      H1782   1.083       .  S
C1774      C1777   1.369       .  A
S1775      C1776   1.724       .  A
C1776      C1777   1.387       .  A
C1777      H1783   1.083       .  S
S1778      C1779   1.723       .  A
C1779      C1780   1.387       .  A
C1780      H1784   1.083       .  S
C1785      C1790   1.387       .  A
C1785      C1786   1.402       .  A
C1785      S1791   1.708       .  A
C1786      C1787   1.403       .  A
C1786      H1797   1.083       .  S
C1787      C1796   1.371       .  A
C1787      C1788   1.388       .  A
C1788      C1789   1.401       .  A
C1788      S1794   1.708       .  A
C1789      C1790   1.402       .  A
C1789      H1798   1.083       .  S
C1790      C1793   1.371       .  A
S1791      C1792   1.723       .  A
C1792      C1793   1.386       .  A
C1793      H1799   1.083       .  S
S1794      C1795   1.719       .  A
C1795      C1796   1.383       .  A
C1796      H1800   1.083       .  S
C1801      C1806   1.386       .  A
C1801      C1802   1.404       .  A
C1801      S1807   1.711       .  A
C1802      C1803   1.405       .  A
C1802      H1813   1.083       .  S
C1803      C1812   1.373       .  A
C1803      C1804   1.387       .  A
C1804      C1805   1.399       .  A
C1804      S1810   1.704       .  A
C1805      C1806   1.400       .  A
C1805      H1814   1.083       .  S
C1806      C1809   1.368       .  A
S1807      C1808   1.725       .  A
C1808      C1809   1.386       .  A
C1809      H1815   1.083       .  S
S1810      C1811   1.721       .  A
C1811      C1812   1.387       .  A
C1812      H1816   1.081       .  S
C1817      C1822   1.386       .  A
C1817      C1818   1.404       .  A
C1817      S1823   1.711       .  A
C1818      C1819   1.405       .  A
C1818      H1829   1.083       .  S
C1819      C1828   1.372       .  A
C1819      C1820   1.387       .  A
C1820      C1821   1.398       .  A
C1820      S1826   1.704       .  A
C1821      C1822   1.399       .  A
C1821      H1830   1.083       .  S
C1822      C1825   1.366       .  A
S1823      C1824   1.724       .  A
C1824      C1825   1.384       .  A
C1825      H1831   1.083       .  S
S1826      C1827   1.721       .  A
C1827      C1828   1.388       .  A
C1828      H1832   1.083       .  S
C1833      C1838   1.387       .  A
C1833      C1834   1.403       .  A
C1833      S1839   1.710       .  A
C1834      C1835   1.404       .  A
C1834      H1845   1.083       .  S
C1835      C1844   1.371       .  A
C1835      C1836   1.389       .  A
C1836      C1837   1.398       .  A
C1836      S1842   1.705       .  A
C1837      C1838   1.400       .  A
C1837      H1846   1.083       .  S
C1838      C1841   1.366       .  A
S1839      C1840   1.723       .  A
C1840      C1841   1.384       .  A
C1841      H1847   1.083       .  S
S1842      C1843   1.718       .  A
C1843      C1844   1.383       .  A
C1844      H1848   1.082       .  S
C1849      C1854   1.387       .  A
C1849      C1850   1.401       .  A
C1849      S1855   1.707       .  A
C1850      C1851   1.402       .  A
C1850      H1861   1.083       .  S
C1851      C1860   1.369       .  A
C1851      C1852   1.386       .  A
C1852      C1853   1.404       .  A
C1852      S1858   1.709       .  A
C1853      C1854   1.405       .  A
C1853      H1862   1.083       .  S
C1854      C1857   1.373       .  A
S1855      C1856   1.723       .  A
C1856      C1857   1.388       .  A
C1857      H1863   1.083       .  S
S1858      C1859   1.724       .  A
C1859      C1860   1.386       .  A
C1860      H1864   1.083       .  S
C1865      C1870   1.387       .  A
C1865      C1866   1.401       .  A
C1865      S1871   1.707       .  A
C1866      C1867   1.402       .  A
C1866      H1877   1.083       .  S
C1867      C1876   1.369       .  A
C1867      C1868   1.386       .  A
C1868      C1869   1.401       .  A
C1868      S1874   1.707       .  A
C1869      C1870   1.402       .  A
C1869      H1878   1.083       .  S
C1870      C1873   1.370       .  A
S1871      C1872   1.723       .  A
C1872      C1873   1.386       .  A
C1873      H1879   1.083       .  S
S1874      C1875   1.722       .  A
C1875      C1876   1.387       .  A
C1876      H1880   1.083       .  S
C1881      C1886   1.388       .  A
C1881      C1882   1.401       .  A
C1881      S1887   1.708       .  A
C1882      C1883   1.402       .  A
C1882      H1893   1.083       .  S
C1883      C1892   1.371       .  A
C1883      C1884   1.387       .  A
C1884      C1885   1.403       .  A
C1884      S1890   1.709       .  A
C1885      C1886   1.404       .  A
C1885      H1894   1.083       .  S
C1886      C1889   1.371       .  A
S1887      C1888   1.719       .  A
C1888      C1889   1.384       .  A
C1889      H1895   1.082       .  S
S1890      C1891   1.723       .  A
C1891      C1892   1.386       .  A
C1892      H1896   1.083       .  S
C1897      C1902   1.387       .  A
C1897      C1898   1.400       .  A
C1897      S1903   1.703       .  A
C1898      C1899   1.401       .  A
C1898      H1909   1.083       .  S
C1899      C1908   1.370       .  A
C1899      C1900   1.387       .  A
C1900      C1901   1.402       .  A
C1900      S1906   1.706       .  A
C1901      C1902   1.403       .  A
C1901      H1910   1.083       .  S
C1902      C1905   1.371       .  A
S1903      C1904   1.721       .  A
C1904      C1905   1.385       .  A
C1905      H1911   1.081       .  S
S1906      C1907   1.724       .  A
C1907      C1908   1.386       .  A
C1908      H1912   1.083       .  S
C1913      C1918   1.387       .  A
C1913      C1914   1.399       .  A
C1913      S1919   1.704       .  A
C1914      C1915   1.400       .  A
C1914      H1925   1.083       .  S
C1915      C1924   1.367       .  A
C1915      C1916   1.387       .  A
C1916      C1917   1.403       .  A
C1916      S1922   1.710       .  A
C1917      C1918   1.404       .  A
C1917      H1926   1.083       .  S
C1918      C1921   1.371       .  A
S1919      C1920   1.720       .  A
C1920      C1921   1.385       .  A
C1921      H1927   1.082       .  S
S1922      C1923   1.724       .  A
C1923      C1924   1.385       .  A
C1924      H1928   1.083       .  S
C1929      C1934   1.388       .  A
C1929      C1930   1.401       .  A
C1929      S1935   1.708       .  A
C1930      C1931   1.402       .  A
C1930      H1941   1.083       .  S
C1931      C1940   1.371       .  A
C1931      C1932   1.387       .  A
C1932      C1933   1.403       .  A
C1932      S1938   1.709       .  A
C1933      C1934   1.404       .  A
C1933      H1942   1.083       .  S
C1934      C1937   1.372       .  A
S1935      C1936   1.719       .  A
C1936      C1937   1.384       .  A
C1937      H1943   1.082       .  S
S1938      C1939   1.724       .  A
C1939      C1940   1.387       .  A
C1940      H1944   1.083       .  S
C1945      C1950   1.387       .  A
C1945      C1946   1.403       .  A
C1945      S1951   1.710       .  A
C1946      C1947   1.404       .  A
C1946      H1957   1.083       .  S
C1947      C1956   1.370       .  A
C1947      C1948   1.387       .  A
C1948      C1949   1.398       .  A
C1948      S1954   1.703       .  A
C1949      C1950   1.399       .  A
C1949      H1958   1.083       .  S
C1950      C1953   1.365       .  A
S1951      C1952   1.724       .  A
C1952      C1953   1.385       .  A
C1953      H1959   1.083       .  S
S1954      C1955   1.720       .  A
C1955      C1956   1.386       .  A
C1956      H1960   1.082       .  S
C1961      C1966   1.388       .  A
C1961      C1962   1.399       .  A
C1961      S1967   1.703       .  A
C1962      C1963   1.400       .  A
C1962      H1973   1.083       .  S
C1963      C1972   1.367       .  A
C1963      C1964   1.387       .  A
C1964      C1965   1.402       .  A
C1964      S1970   1.707       .  A
C1965      C1966   1.402       .  A
C1965      H1974   1.083       .  S
C1966      C1969   1.369       .  A
S1967      C1968   1.720       .  A
C1968      C1969   1.385       .  A
C1969      H1975   1.083       .  S
S1970      C1971   1.723       .  A
C1971      C1972   1.384       .  A
C1972      H1976   1.083       .  S
C1977      C1982   1.388       .  A
C1977      C1978   1.404       .  A
C1977      S1983   1.711       .  A
C1978      C1979   1.405       .  A
C1978      H1989   1.083       .  S
C1979      C1988   1.374       .  A
C1979      C1980   1.387       .  A
C1980      C1981   1.399       .  A
C1980      S1986   1.703       .  A
C1981      C1982   1.399       .  A
C1981      H1990   1.083       .  S
C1982      C1985   1.368       .  A
S1983      C1984   1.721       .  A
C1984      C1985   1.380       .  A
C1985      H1991   1.083       .  S
S1986      C1987   1.721       .  A
C1987      C1988   1.387       .  A
C1988      H1992   1.083       .  S
C1993      C1998   1.387       .  A
C1993      C1994   1.400       .  A
C1993      S1999   1.706       .  A
C1994      C1995   1.401       .  A
C1994      H2005   1.083       .  S
C1995      C2004   1.368       .  A
C1995      C1996   1.387       .  A
C1996      C1997   1.401       .  A
C1996      S2002   1.708       .  A
C1997      C1998   1.402       .  A
C1997      H2006   1.083       .  S
C1998      C2001   1.368       .  A
S1999      C2000   1.720       .  A
C2000      C2001   1.384       .  A
C2001      H2007   1.082       .  S
S2002      C2003   1.723       .  A
C2003      C2004   1.386       .  A
C2004      H2008   1.083       .  S
C2009      C2014   1.387       .  A
C2009      C2010   1.400       .  A
C2009      S2015   1.706       .  A
C2010      C2011   1.402       .  A
C2010      H2021   1.083       .  S
C2011      C2020   1.368       .  A
C2011      C2012   1.387       .  A
C2012      C2013   1.401       .  A
C2012      S2018   1.708       .  A
C2013      C2014   1.403       .  A
C2013      H2022   1.083       .  S
C2014      C2017   1.369       .  A
S2015      C2016   1.723       .  A
C2016      C2017   1.386       .  A
C2017      H2023   1.083       .  S
S2018      C2019   1.722       .  A
C2019      C2020   1.385       .  A
C2020      H2024   1.083       .  S
C2025      C2030   1.388       .  A
C2025      C2026   1.402       .  A
C2025      S2031   1.709       .  A
C2026      C2027   1.403       .  A
C2026      H2037   1.083       .  S
C2027      C2036   1.371       .  A
C2027      C2028   1.387       .  A
C2028      C2029   1.403       .  A
C2028      S2034   1.710       .  A
C2029      C2030   1.403       .  A
C2029      H2038   1.083       .  S
C2030      C2033   1.371       .  A
S2031      C2032   1.719       .  A
C2032      C2033   1.383       .  A
C2033      H2039   1.082       .  S
S2034      C2035   1.723       .  A
C2035      C2036   1.386       .  A
C2036      H2040   1.083       .  S
C2041      C2046   1.387       .  A
C2041      C2042   1.401       .  A
C2041      S2047   1.708       .  A
C2042      C2043   1.402       .  A
C2042      H2053   1.083       .  S
C2043      C2052   1.369       .  A
C2043      C2044   1.386       .  A
C2044      C2045   1.403       .  A
C2044      S2050   1.710       .  A
C2045      C2046   1.405       .  A
C2045      H2054   1.083       .  S
C2046      C2049   1.372       .  A
S2047      C2048   1.722       .  A
C2048      C2049   1.388       .  A
C2049      H2055   1.083       .  S
S2050      C2051   1.723       .  A
C2051      C2052   1.386       .  A
C2052      H2056   1.083       .  S
C2057      C2062   1.386       .  A
C2057      C2058   1.404       .  A
C2057      S2063   1.709       .  A
C2058      C2059   1.404       .  A
C2058      H2069   1.083       .  S
C2059      C2068   1.373       .  A
C2059      C2060   1.387       .  A
C2060      C2061   1.399       .  A
C2060      S2066   1.704       .  A
C2061      C2062   1.400       .  A
C2061      H2070   1.083       .  S
C2062      C2065   1.368       .  A
S2063      C2064   1.723       .  A
C2064      C2065   1.384       .  A
C2065      H2071   1.083       .  S
S2066      C2067   1.722       .  A
C2067      C2068   1.388       .  A
C2068      H2072   1.083       .  S
C2073      C2078   1.388       .  A
C2073      C2074   1.401       .  A
C2073      S2079   1.708       .  A
C2074      C2075   1.403       .  A
C2074      H2085   1.083       .  S
C2075      C2084   1.371       .  A
C2075      C2076   1.387       .  A
C2076      C2077   1.403       .  A
C2076      S2082   1.709       .  A
C2077      C2078   1.403       .  A
C2077      H2086   1.083       .  S
C2078      C2081   1.371       .  A
S2079      C2080   1.719       .  A
C2080      C2081   1.384       .  A
C2081      H2087   1.083       .  S
S2082      C2083   1.723       .  A
C2083      C2084   1.387       .  A
C2084      H2088   1.083       .  S
C2089      C2094   1.387       .  A
C2089      C2090   1.401       .  A
C2089      S2095   1.704       .  A
C2090      C2091   1.401       .  A
C2090      H2101   1.083       .  S
C2091      C2100   1.370       .  A
C2091      C2092   1.387       .  A
C2092      C2093   1.403       .  A
C2092      S2098   1.708       .  A
C2093      C2094   1.403       .  A
C2093      H2102   1.083       .  S
C2094      C2097   1.372       .  A
S2095      C2096   1.723       .  A
C2096      C2097   1.386       .  A
C2097      H2103   1.081       .  S
S2098      C2099   1.724       .  A
C2099      C2100   1.386       .  A
C2100      H2104   1.083       .  S
C2105      C2110   1.386       .  A
C2105      C2106   1.403       .  A
C2105      S2111   1.711       .  A
C2106      C2107   1.405       .  A
C2106      H2117   1.083       .  S
C2107      C2116   1.372       .  A
C2107      C2108   1.387       .  A
C2108      C2109   1.400       .  A
C2108      S2114   1.707       .  A
C2109      C2110   1.402       .  A
C2109      H2118   1.083       .  S
C2110      C2113   1.368       .  A
S2111      C2112   1.724       .  A
C2112      C2113   1.386       .  A
C2113      H2119   1.083       .  S
S2114      C2115   1.722       .  A
C2115      C2116   1.388       .  A
C2116      H2120   1.083       .  S
C2121      C2126   1.388       .  A
C2121      C2122   1.403       .  A
C2121      S2127   1.709       .  A
C2122      C2123   1.403       .  A
C2122      H2133   1.083       .  S
C2123      C2132   1.373       .  A
C2123      C2124   1.387       .  A
C2124      C2125   1.403       .  A
C2124      S2130   1.708       .  A
C2125      C2126   1.403       .  A
C2125      H2134   1.083       .  S
C2126      C2129   1.372       .  A
S2127      C2128   1.720       .  A
C2128      C2129   1.383       .  A
C2129      H2135   1.082       .  S
S2130      C2131   1.723       .  A
C2131      C2132   1.387       .  A
C2132      H2136   1.083       .  S
C2137      C2142   1.387       .  A
C2137      C2138   1.402       .  A
C2137      S2143   1.710       .  A
C2138      C2139   1.404       .  A
C2138      H2149   1.083       .  S
C2139      C2148   1.370       .  A
C2139      C2140   1.387       .  A
C2140      C2141   1.398       .  A
C2140      S2146   1.703       .  A
C2141      C2142   1.399       .  A
C2141      H2150   1.083       .  S
C2142      C2145   1.366       .  A
S2143      C2144   1.724       .  A
C2144      C2145   1.385       .  A
C2145      H2151   1.083       .  S
S2146      C2147   1.721       .  A
C2147      C2148   1.386       .  A
C2148      H2152   1.082       .  S
C2153      C2158   1.386       .  A
C2153      C2154   1.403       .  A
C2153      S2159   1.709       .  A
C2154      C2155   1.404       .  A
C2154      H2165   1.083       .  S
C2155      C2164   1.372       .  A
C2155      C2156   1.387       .  A
C2156      C2157   1.397       .  A
C2156      S2162   1.703       .  A
C2157      C2158   1.399       .  A
C2157      H2166   1.083       .  S
C2158      C2161   1.365       .  A
S2159      C2160   1.724       .  A
C2160      C2161   1.384       .  A
C2161      H2167   1.083       .  S
S2162      C2163   1.720       .  A
C2163      C2164   1.387       .  A
C2164      H2168   1.083       .  S
C2169      C2174   1.388       .  A
C2169      C2170   1.404       .  A
C2169      S2175   1.711       .  A
C2170      C2171   1.405       .  A
C2170      H2181   1.083       .  S
C2171      C2180   1.374       .  A
C2171      C2172   1.387       .  A
C2172      C2173   1.401       .  A
C2172      S2178   1.706       .  A
C2173      C2174   1.401       .  A
C2173      H2182   1.083       .  S
C2174      C2177   1.370       .  A
S2175      C2176   1.721       .  A
C2176      C2177   1.382       .  A
C2177      H2183   1.083       .  S
S2178      C2179   1.722       .  A
C2179      C2180   1.388       .  A
C2180      H2184   1.083       .  S
C2185      C2190   1.387       .  A
C2185      C2186   1.401       .  A
C2185      S2191   1.706       .  A
C2186      C2187   1.402       .  A
C2186      H2197   1.083       .  S
C2187      C2196   1.369       .  A
C2187      C2188   1.387       .  A
C2188      C2189   1.402       .  A
C2188      S2194   1.710       .  A
C2189      C2190   1.403       .  A
C2189      H2198   1.083       .  S
C2190      C2193   1.371       .  A
S2191      C2192   1.721       .  A
C2192      C2193   1.385       .  A
C2193      H2199   1.083       .  S
S2194      C2195   1.724       .  A
C2195      C2196   1.387       .  A
C2196      H2200   1.083       .  S
C2201      C2206   1.387       .  A
C2201      C2202   1.399       .  A
C2201      S2207   1.705       .  A
C2202      C2203   1.400       .  A
C2202      H2213   1.083       .  S
C2203      C2212   1.367       .  A
C2203      C2204   1.386       .  A
C2204      C2205   1.403       .  A
C2204      S2210   1.710       .  A
C2205      C2206   1.404       .  A
C2205      H2214   1.083       .  S
C2206      C2209   1.372       .  A
S2207      C2208   1.721       .  A
C2208      C2209   1.388       .  A
C2209      H2215   1.083       .  S
S2210      C2211   1.724       .  A
C2211      C2212   1.385       .  A
C2212      H2216   1.083       .  S
C2217      C2222   1.388       .  A
C2217      C2218   1.403       .  A
C2217      S2223   1.709       .  A
C2218      C2219   1.403       .  A
C2218      H2229   1.083       .  S
C2219      C2228   1.374       .  A
C2219      C2220   1.387       .  A
C2220      C2221   1.404       .  A
C2220      S2226   1.710       .  A
C2221      C2222   1.404       .  A
C2221      H2230   1.083       .  S
C2222      C2225   1.374       .  A
S2223      C2224   1.719       .  A
C2224      C2225   1.384       .  A
C2225      H2231   1.082       .  S
S2226      C2227   1.724       .  A
C2227      C2228   1.387       .  A
C2228      H2232   1.083       .  S
C2233      C2238   1.387       .  A
C2233      C2234   1.398       .  A
C2233      S2239   1.706       .  A
C2234      C2235   1.401       .  A
C2234      H2245   1.083       .  S
C2235      C2244   1.365       .  A
C2235      C2236   1.386       .  A
C2236      C2237   1.402       .  A
C2236      S2242   1.711       .  A
C2237      C2238   1.404       .  A
C2237      H2246   1.083       .  S
C2238      C2241   1.369       .  A
S2239      C2240   1.720       .  A
C2240      C2241   1.386       .  A
C2241      H2247   1.083       .  S
S2242      C2243   1.725       .  A
C2243      C2244   1.386       .  A
C2244      H2248   1.083       .  S
C2249      C2254   1.386       .  A
C2249      C2250   1.402       .  A
C2249      S2255   1.708       .  A
C2250      C2251   1.403       .  A
C2250      H2261   1.083       .  S
C2251      C2260   1.371       .  A
C2251      C2252   1.387       .  A
C2252      C2253   1.400       .  A
C2252      S2258   1.705       .  A
C2253      C2254   1.401       .  A
C2253      H2262   1.083       .  S
C2254      C2257   1.367       .  A
S2255      C2256   1.723       .  A
C2256      C2257   1.386       .  A
C2257      H2263   1.083       .  S
S2258      C2259   1.722       .  A
C2259      C2260   1.387       .  A
C2260      H2264   1.083       .  S
C2265      C2270   1.389       .  A
C2265      C2266   1.400       .  A
C2265      S2271   1.707       .  A
C2266      C2267   1.401       .  A
C2266      H2277   1.083       .  S
C2267      C2276   1.370       .  A
C2267      C2268   1.387       .  A
C2268      C2269   1.405       .  A
C2268      S2274   1.712       .  A
C2269      C2270   1.405       .  A
C2269      H2278   1.083       .  S
C2270      C2273   1.374       .  A
S2271      C2272   1.718       .  A
C2272      C2273   1.385       .  A
C2273      H2279   1.082       .  S
S2274      C2275   1.724       .  A
C2275      C2276   1.385       .  A
C2276      H2280   1.083       .  S
C2281      C2286   1.387       .  A
C2281      C2282   1.401       .  A
C2281      S2287   1.704       .  A
C2282      C2283   1.401       .  A
C2282      H2293   1.083       .  S
C2283      C2292   1.371       .  A
C2283      C2284   1.387       .  A
C2284      C2285   1.404       .  A
C2284      S2290   1.708       .  A
C2285      C2286   1.404       .  A
C2285      H2294   1.083       .  S
C2286      C2289   1.373       .  A
S2287      C2288   1.721       .  A
C2288      C2289   1.386       .  A
C2289      H2295   1.083       .  S
S2290      C2291   1.725       .  A
C2291      C2292   1.386       .  A
C2292      H2296   1.083       .  S
C2297      C2302   1.387       .  A
C2297      C2298   1.399       .  A
C2297      S2303   1.703       .  A
C2298      C2299   1.400       .  A
C2298      H2309   1.083       .  S
C2299      C2308   1.368       .  A
C2299      C2300   1.387       .  A
C2300      C2301   1.403       .  A
C2300      S2306   1.709       .  A
C2301      C2302   1.404       .  A
C2301      H2310   1.083       .  S
C2302      C2305   1.372       .  A
S2303      C2304   1.722       .  A
C2304      C2305   1.386       .  A
C2305      H2311   1.082       .  S
S2306      C2307   1.723       .  A
C2307      C2308   1.386       .  A
C2308      H2312   1.083       .  S
C2313      C2318   1.388       .  A
C2313      C2314   1.402       .  A
C2313      S2319   1.709       .  A
C2314      C2315   1.403       .  A
C2314      H2325   1.083       .  S
C2315      C2324   1.372       .  A
C2315      C2316   1.387       .  A
C2316      C2317   1.404       .  A
C2316      S2322   1.711       .  A
C2317      C2318   1.404       .  A
C2317      H2326   1.083       .  S
C2318      C2321   1.373       .  A
S2319      C2320   1.719       .  A
C2320      C2321   1.385       .  A
C2321      H2327   1.082       .  S
S2322      C2323   1.723       .  A
C2323      C2324   1.387       .  A
C2324      H2328   1.083       .  S
C2329      C2334   1.387       .  A
C2329      C2330   1.404       .  A
C2329      S2335   1.711       .  A
C2330      C2331   1.405       .  A
C2330      H2341   1.083       .  S
C2331      C2340   1.373       .  A
C2331      C2332   1.387       .  A
C2332      C2333   1.400       .  A
C2332      S2338   1.706       .  A
C2333      C2334   1.401       .  A
C2333      H2342   1.083       .  S
C2334      C2337   1.368       .  A
S2335      C2336   1.723       .  A
C2336      C2337   1.385       .  A
C2337      H2343   1.083       .  S
S2338      C2339   1.722       .  A
C2339      C2340   1.389       .  A
C2340      H2344   1.083       .  S
C2345      C2350   1.387       .  A
C2345      C2346   1.402       .  A
C2345      S2351   1.706       .  A
C2346      C2347   1.402       .  A
C2346      H2357   1.083       .  S
C2347      C2356   1.371       .  A
C2347      C2348   1.387       .  A
C2348      C2349   1.403       .  A
C2348      S2354   1.708       .  A
C2349      C2350   1.403       .  A
C2349      H2358   1.083       .  S
C2350      C2353   1.372       .  A
S2351      C2352   1.722       .  A
C2352      C2353   1.385       .  A
C2353      H2359   1.083       .  S
S2354      C2355   1.724       .  A
C2355      C2356   1.387       .  A
C2356      H2360   1.083       .  S
C2361      C2366   1.388       .  A
C2361      C2362   1.402       .  A
C2361      S2367   1.710       .  A
C2362      C2363   1.403       .  A
C2362      H2373   1.083       .  S
C2363      C2372   1.372       .  A
C2363      C2364   1.387       .  A
C2364      C2365   1.403       .  A
C2364      S2370   1.711       .  A
C2365      C2366   1.404       .  A
C2365      H2374   1.083       .  S
C2366      C2369   1.372       .  A
S2367      C2368   1.720       .  A
C2368      C2369   1.385       .  A
C2369      H2375   1.082       .  S
S2370      C2371   1.723       .  A
C2371      C2372   1.386       .  A
C2372      H2376   1.083       .  S
C2377      C2382   1.387       .  A
C2377      C2378   1.401       .  A
C2377      S2383   1.705       .  A
C2378      C2379   1.402       .  A
C2378      H2389   1.083       .  S
C2379      C2388   1.370       .  A
C2379      C2380   1.388       .  A
C2380      C2381   1.398       .  A
C2380      S2386   1.702       .  A
C2381      C2382   1.399       .  A
C2381      H2390   1.083       .  S
C2382      C2385   1.367       .  A
S2383      C2384   1.723       .  A
C2384      C2385   1.384       .  A
C2385      H2391   1.083       .  S
S2386      C2387   1.719       .  A
C2387      C2388   1.384       .  A
C2388      H2392   1.083       .  S
C2393      C2398   1.387       .  A
C2393      C2394   1.397       .  A
C2393      S2399   1.702       .  A
C2394      C2395   1.398       .  A
C2394      H2405   1.083       .  S
C2395      C2404   1.365       .  A
C2395      C2396   1.387       .  A
C2396      C2397   1.402       .  A
C2396      S2402   1.709       .  A
C2397      C2398   1.403       .  A
C2397      H2406   1.083       .  S
C2398      C2401   1.369       .  A
S2399      C2400   1.719       .  A
C2400      C2401   1.385       .  A
C2401      H2407   1.082       .  S
S2402      C2403   1.724       .  A
C2403      C2404   1.384       .  A
C2404      H2408   1.083       .  S
C2409      C2414   1.388       .  A
C2409      C2410   1.402       .  A
C2409      S2415   1.709       .  A
C2410      C2411   1.403       .  A
C2410      H2421   1.083       .  S
C2411      C2420   1.371       .  A
C2411      C2412   1.387       .  A
C2412      C2413   1.402       .  A
C2412      S2418   1.708       .  A
C2413      C2414   1.403       .  A
C2413      H2422   1.083       .  S
C2414      C2417   1.371       .  A
S2415      C2416   1.719       .  A
C2416      C2417   1.383       .  A
C2417      H2423   1.082       .  S
S2418      C2419   1.724       .  A
C2419      C2420   1.387       .  A
C2420      H2424   1.083       .  S
C2425      C2430   1.386       .  A
C2425      C2426   1.403       .  A
C2425      S2431   1.711       .  A
C2426      C2427   1.405       .  A
C2426      H2437   1.083       .  S
C2427      C2436   1.371       .  A
C2427      C2428   1.387       .  A
C2428      C2429   1.400       .  A
C2428      S2434   1.707       .  A
C2429      C2430   1.401       .  A
C2429      H2438   1.083       .  S
C2430      C2433   1.367       .  A
S2431      C2432   1.724       .  A
C2432      C2433   1.386       .  A
C2433      H2439   1.083       .  S
S2434      C2435   1.722       .  A
C2435      C2436   1.388       .  A
C2436      H2440   1.083       .  S
C2441      C2446   1.386       .  A
C2441      C2442   1.405       .  A
C2441      S2447   1.712       .  A
C2442      C2443   1.406       .  A
C2442      H2453   1.083       .  S
C2443      C2452   1.373       .  A
C2443      C2444   1.387       .  A
C2444      C2445   1.398       .  A
C2444      S2450   1.704       .  A
C2445      C2446   1.399       .  A
C2445      H2454   1.083       .  S
C2446      C2449   1.365       .  A
S2447      C2448   1.725       .  A
C2448      C2449   1.384       .  A
C2449      H2455   1.083       .  S
S2450      C2451   1.720       .  A
C2451      C2452   1.388       .  A
C2452      H2456   1.083       .  S
C2457      C2462   1.388       .  A
C2457      C2458   1.402       .  A
C2457      S2463   1.709       .  A
C2458      C2459   1.403       .  A
C2458      H2469   1.083       .  S
C2459      C2468   1.371       .  A
C2459      C2460   1.387       .  A
C2460      C2461   1.402       .  A
C2460      S2466   1.709       .  A
C2461      C2462   1.403       .  A
C2461      H2470   1.083       .  S
C2462      C2465   1.371       .  A
S2463      C2464   1.719       .  A
C2464      C2465   1.383       .  A
C2465      H2471   1.082       .  S
S2466      C2467   1.722       .  A
C2467      C2468   1.385       .  A
C2468      H2472   1.083       .  S
C2473      C2478   1.385       .  A
C2473      C2474   1.405       .  A
C2473      S2479   1.712       .  A
C2474      C2475   1.406       .  A
C2474      H2485   1.083       .  S
C2475      C2484   1.374       .  A
C2475      C2476   1.387       .  A
C2476      C2477   1.398       .  A
C2476      S2482   1.703       .  A
C2477      C2478   1.400       .  A
C2477      H2486   1.083       .  S
C2478      C2481   1.366       .  A
S2479      C2480   1.726       .  A
C2480      C2481   1.387       .  A
C2481      H2487   1.083       .  S
S2482      C2483   1.720       .  A
C2483      C2484   1.387       .  A
C2484      H2488   1.083       .  S
C2489      C2494   1.386       .  A
C2489      C2490   1.403       .  A
C2489      S2495   1.710       .  A
C2490      C2491   1.404       .  A
C2490      H2501   1.083       .  S
C2491      C2500   1.371       .  A
C2491      C2492   1.387       .  A
C2492      C2493   1.400       .  A
C2492      S2498   1.706       .  A
C2493      C2494   1.401       .  A
C2493      H2502   1.083       .  S
C2494      C2497   1.367       .  A
S2495      C2496   1.723       .  A
C2496      C2497   1.385       .  A
C2497      H2503   1.083       .  S
S2498      C2499   1.722       .  A
C2499      C2500   1.388       .  A
C2500      H2504   1.083       .  S
C2505      C2510   1.388       .  A
C2505      C2506   1.403       .  A
C2505      S2511   1.711       .  A
C2506      C2507   1.404       .  A
C2506      H2517   1.083       .  S
C2507      C2516   1.373       .  A
C2507      C2508   1.387       .  A
C2508      C2509   1.402       .  A
C2508      S2514   1.707       .  A
C2509      C2510   1.402       .  A
C2509      H2518   1.083       .  S
C2510      C2513   1.370       .  A
S2511      C2512   1.720       .  A
C2512      C2513   1.383       .  A
C2513      H2519   1.082       .  S
S2514      C2515   1.723       .  A
C2515      C2516   1.387       .  A
C2516      H2520   1.083       .  S
C2521      C2526   1.387       .  A
C2521      C2522   1.400       .  A
C2521      S2527   1.707       .  A
C2522      C2523   1.402       .  A
C2522      H2533   1.083       .  S
C2523      C2532   1.368       .  A
C2523      C2524   1.386       .  A
C2524      C2525   1.402       .  A
C2524      S2530   1.708       .  A
C2525      C2526   1.403       .  A
C2525      H2534   1.083       .  S
C2526      C2529   1.370       .  A
S2527      C2528   1.723       .  A
C2528      C2529   1.387       .  A
C2529      H2535   1.083       .  S
S2530      C2531   1.724       .  A
C2531      C2532   1.386       .  A
C2532      H2536   1.083       .  S
C2537      C2542   1.386       .  A
C2537      C2538   1.400       .  A
C2537      S2543   1.705       .  A
C2538      C2539   1.401       .  A
C2538      H2549   1.083       .  S
C2539      C2548   1.369       .  A
C2539      C2540   1.387       .  A
C2540      C2541   1.402       .  A
C2540      S2546   1.708       .  A
C2541      C2542   1.403       .  A
C2541      H2550   1.083       .  S
C2542      C2545   1.369       .  A
S2543      C2544   1.724       .  A
C2544      C2545   1.389       .  A
C2545      H2551   1.083       .  S
S2546      C2547   1.722       .  A
C2547      C2548   1.384       .  A
C2548      H2552   1.083       .  S
C2553      C2558   1.389       .  A
C2553      C2554   1.401       .  A
C2553      S2559   1.709       .  A
C2554      C2555   1.402       .  A
C2554      H2565   1.083       .  S
C2555      C2564   1.370       .  A
C2555      C2556   1.387       .  A
C2556      C2557   1.402       .  A
C2556      S2562   1.708       .  A
C2557      C2558   1.402       .  A
C2557      H2566   1.083       .  S
C2558      C2561   1.370       .  A
S2559      C2560   1.719       .  A
C2560      C2561   1.383       .  A
C2561      H2567   1.082       .  S
S2562      C2563   1.722       .  A
C2563      C2564   1.386       .  A
C2564      H2568   1.083       .  S
C2569      C2574   1.386       .  A
C2569      C2570   1.404       .  A
C2569      S2575   1.710       .  A
C2570      C2571   1.405       .  A
C2570      H2581   1.083       .  S
C2571      C2580   1.373       .  A
C2571      C2572   1.387       .  A
C2572      C2573   1.399       .  A
C2572      S2578   1.703       .  A
C2573      C2574   1.400       .  A
C2573      H2582   1.083       .  S
C2574      C2577   1.367       .  A
S2575      C2576   1.724       .  A
C2576      C2577   1.385       .  A
C2577      H2583   1.083       .  S
S2578      C2579   1.722       .  A
C2579      C2580   1.388       .  A
C2580      H2584   1.083       .  S
C2585      C2590   1.386       .  A
C2585      C2586   1.403       .  A
C2585      S2591   1.710       .  A
C2586      C2587   1.405       .  A
C2586      H2597   1.083       .  S
C2587      C2596   1.372       .  A
C2587      C2588   1.387       .  A
C2588      C2589   1.399       .  A
C2588      S2594   1.706       .  A
C2589      C2590   1.401       .  A
C2589      H2598   1.083       .  S
C2590      C2593   1.367       .  A
S2591      C2592   1.724       .  A
C2592      C2593   1.385       .  A
C2593      H2599   1.083       .  S
S2594      C2595   1.722       .  A
C2595      C2596   1.388       .  A
C2596      H2600   1.083       .  S
C2601      C2606   1.388       .  A
C2601      C2602   1.401       .  A
C2601      S2607   1.709       .  A
C2602      C2603   1.402       .  A
C2602      H2613   1.083       .  S
C2603      C2612   1.370       .  A
C2603      C2604   1.387       .  A
C2604      C2605   1.402       .  A
C2604      S2610   1.708       .  A
C2605      C2606   1.402       .  A
C2605      H2614   1.083       .  S
C2606      C2609   1.370       .  A
S2607      C2608   1.719       .  A
C2608      C2609   1.383       .  A
C2609      H2615   1.083       .  S
S2610      C2611   1.723       .  A
C2611      C2612   1.385       .  A
C2612      H2616   1.083       .  S
C2617      C2622   1.387       .  A
C2617      C2618   1.403       .  A
C2617      S2623   1.710       .  A
C2618      C2619   1.404       .  A
C2618      H2629   1.083       .  S
C2619      C2628   1.370       .  A
C2619      C2620   1.387       .  A
C2620      C2621   1.398       .  A
C2620      S2626   1.703       .  A
C2621      C2622   1.399       .  A
C2621      H2630   1.083       .  S
C2622      C2625   1.365       .  A
S2623      C2624   1.724       .  A
C2624      C2625   1.384       .  A
C2625      H2631   1.083       .  S
S2626      C2627   1.719       .  A
C2627      C2628   1.386       .  A
C2628      H2632   1.082       .  S
C2633      C2638   1.386       .  A
C2633      C2634   1.400       .  A
C2633      S2639   1.706       .  A
C2634      C2635   1.402       .  A
C2634      H2645   1.083       .  S
C2635      C2644   1.368       .  A
C2635      C2636   1.387       .  A
C2636      C2637   1.400       .  A
C2636      S2642   1.706       .  A
C2637      C2638   1.401       .  A
C2637      H2646   1.083       .  S
C2638      C2641   1.367       .  A
S2639      C2640   1.722       .  A
C2640      C2641   1.386       .  A
C2641      H2647   1.083       .  S
S2642      C2643   1.722       .  A
C2643      C2644   1.385       .  A
C2644      H2648   1.083       .  S
C2649      C2654   1.387       .  A
C2649      C2650   1.402       .  A
C2649      S2655   1.707       .  A
C2650      C2651   1.403       .  A
C2650      H2661   1.083       .  S
C2651      C2660   1.371       .  A
C2651      C2652   1.388       .  A
C2652      C2653   1.402       .  A
C2652      S2658   1.709       .  A
C2653      C2654   1.403       .  A
C2653      H2662   1.083       .  S
C2654      C2657   1.373       .  A
S2655      C2656   1.724       .  A
C2656      C2657   1.387       .  A
C2657      H2663   1.083       .  S
S2658      C2659   1.720       .  A
C2659      C2660   1.383       .  A
C2660      H2664   1.083       .  S
C2665      C2670   1.387       .  A
C2665      C2666   1.404       .  A
C2665      S2671   1.708       .  A
C2666      C2667   1.404       .  A
C2666      H2677   1.083       .  S
C2667      C2676   1.374       .  A
C2667      C2668   1.387       .  A
C2668      C2669   1.401       .  A
C2668      S2674   1.704       .  A
C2669      C2670   1.401       .  A
C2669      H2678   1.083       .  S
C2670      C2673   1.371       .  A
S2671      C2672   1.725       .  A
C2672      C2673   1.386       .  A
C2673      H2679   1.083       .  S
S2674      C2675   1.722       .  A
C2675      C2676   1.386       .  A
C2676      H2680   1.082       .  S
C2681      C2686   1.387       .  A
C2681      C2682   1.401       .  A
C2681      S2687   1.706       .  A
C2682      C2683   1.402       .  A
C2682      H2693   1.083       .  S
C2683      C2692   1.369       .  A
C2683      C2684   1.387       .  A
C2684      C2685   1.402       .  A
C2684      S2690   1.709       .  A
C2685      C2686   1.403       .  A
C2685      H2694   1.083       .  S
C2686      C2689   1.371       .  A
S2687      C2688   1.721       .  A
C2688      C2689   1.385       .  A
C2689      H2695   1.083       .  S
S2690      C2691   1.724       .  A
C2691      C2692   1.387       .  A
C2692      H2696   1.083       .  S
C2697      C2702   1.388       .  A
C2697      C2698   1.401       .  A
C2697      S2703   1.708       .  A
C2698      C2699   1.402       .  A
C2698      H2709   1.083       .  S
C2699      C2708   1.371       .  A
C2699      C2700   1.387       .  A
C2700      C2701   1.404       .  A
C2700      S2706   1.711       .  A
C2701      C2702   1.405       .  A
C2701      H2710   1.083       .  S
C2702      C2705   1.374       .  A
S2703      C2704   1.719       .  A
C2704      C2705   1.384       .  A
C2705      H2711   1.082       .  S
S2706      C2707   1.724       .  A
C2707      C2708   1.386       .  A
C2708      H2712   1.083       .  S
C2713      C2718   1.387       .  A
C2713      C2714   1.403       .  A
C2713      S2719   1.705       .  A
C2714      C2715   1.403       .  A
C2714      H2725   1.083       .  S
C2715      C2724   1.374       .  A
C2715      C2716   1.387       .  A
C2716      C2717   1.405       .  A
C2716      S2722   1.709       .  A
C2717      C2718   1.405       .  A
C2717      H2726   1.083       .  S
C2718      C2721   1.376       .  A
S2719      C2720   1.724       .  A
C2720      C2721   1.388       .  A
C2721      H2727   1.082       .  S
S2722      C2723   1.725       .  A
C2723      C2724   1.388       .  A
C2724      H2728   1.083       .  S
C2729      C2734   1.387       .  A
C2729      C2730   1.402       .  A
C2729      S2735   1.706       .  A
C2730      C2731   1.402       .  A
C2730      H2741   1.083       .  S
C2731      C2740   1.372       .  A
C2731      C2732   1.386       .  A
C2732      C2733   1.405       .  A
C2732      S2738   1.710       .  A
C2733      C2734   1.405       .  A
C2733      H2742   1.083       .  S
C2734      C2737   1.375       .  A
S2735      C2736   1.722       .  A
C2736      C2737   1.388       .  A
C2737      H2743   1.082       .  S
S2738      C2739   1.726       .  A
C2739      C2740   1.387       .  A
C2740      H2744   1.083       .  S
C2745      C2750   1.388       .  A
C2745      C2746   1.402       .  A
C2745      S2751   1.708       .  A
C2746      C2747   1.403       .  A
C2746      H2757   1.083       .  S
C2747      C2756   1.371       .  A
C2747      C2748   1.387       .  A
C2748      C2749   1.403       .  A
C2748      S2754   1.709       .  A
C2749      C2750   1.403       .  A
C2749      H2758   1.083       .  S
C2750      C2753   1.371       .  A
S2751      C2752   1.719       .  A
C2752      C2753   1.383       .  A
C2753      H2759   1.083       .  S
S2754      C2755   1.724       .  A
C2755      C2756   1.387       .  A
C2756      H2760   1.083       .  S
C2761      C2766   1.387       .  A
C2761      C2762   1.402       .  A
C2761      S2767   1.709       .  A
C2762      C2763   1.403       .  A
C2762      H2773   1.083       .  S
C2763      C2772   1.370       .  A
C2763      C2764   1.387       .  A
C2764      C2765   1.399       .  A
C2764      S2770   1.706       .  A
C2765      C2766   1.401       .  A
C2765      H2774   1.083       .  S
C2766      C2769   1.367       .  A
S2767      C2768   1.724       .  A
C2768      C2769   1.385       .  A
C2769      H2775   1.083       .  S
S2770      C2771   1.721       .  A
C2771      C2772   1.387       .  A
C2772      H2776   1.083       .  S
C2777      C2782   1.386       .  A
C2777      C2778   1.402       .  A
C2777      S2783   1.707       .  A
C2778      C2779   1.403       .  A
C2778      H2789   1.083       .  S
C2779      C2788   1.371       .  A
C2779      C2780   1.387       .  A
C2780      C2781   1.401       .  A
C2780      S2786   1.707       .  A
C2781      C2782   1.402       .  A
C2781      H2790   1.083       .  S
C2782      C2785   1.369       .  A
S2783      C2784   1.724       .  A
C2784      C2785   1.386       .  A
C2785      H2791   1.083       .  S
S2786      C2787   1.722       .  A
C2787      C2788   1.387       .  A
C2788      H2792   1.083       .  S
C2793      C2798   1.387       .  A
C2793      C2794   1.400       .  A
C2793      S2799   1.706       .  A
C2794      C2795   1.401       .  A
C2794      H2805   1.083       .  S
C2795      C2804   1.369       .  A
C2795      C2796   1.388       .  A
C2796      C2797   1.403       .  A
C2796      S2802   1.710       .  A
C2797      C2798   1.404       .  A
C2797      H2806   1.083       .  S
C2798      C2801   1.372       .  A
S2799      C2800   1.720       .  A
C2800      C2801   1.387       .  A
C2801      H2807   1.083       .  S
S2802      C2803   1.720       .  A
C2803      C2804   1.381       .  A
C2804      H2808   1.083       .  S
C2809      C2814   1.385       .  A
C2809      C2810   1.402       .  A
C2809      S2815   1.708       .  A
C2810      C2811   1.403       .  A
C2810      H2821   1.083       .  S
C2811      C2820   1.371       .  A
C2811      C2812   1.387       .  A
C2812      C2813   1.399       .  A
C2812      S2818   1.705       .  A
C2813      C2814   1.401       .  A
C2813      H2822   1.083       .  S
C2814      C2817   1.367       .  A
S2815      C2816   1.724       .  A
C2816      C2817   1.387       .  A
C2817      H2823   1.083       .  S
S2818      C2819   1.722       .  A
C2819      C2820   1.386       .  A
C2820      H2824   1.083       .  S
C2825      C2830   1.387       .  A
C2825      C2826   1.400       .  A
C2825      S2831   1.704       .  A
C2826      C2827   1.401       .  A
C2826      H2837   1.083       .  S
C2827      C2836   1.369       .  A
C2827      C2828   1.387       .  A
C2828      C2829   1.403       .  A
C2828      S2834   1.709       .  A
C2829      C2830   1.404       .  A
C2829      H2838   1.083       .  S
C2830      C2833   1.371       .  A
S2831      C2832   1.722       .  A
C2832      C2833   1.387       .  A
C2833      H2839   1.081       .  S
S2834      C2835   1.724       .  A
C2835      C2836   1.386       .  A
C2836      H2840   1.083       .  S
C2841      C2846   1.388       .  A
C2841      C2842   1.403       .  A
C2841      S2847   1.710       .  A
C2842      C2843   1.404       .  A
C2842      H2853   1.080       .  S
C2843      C2852   1.373       .  A
C2843      C2844   1.387       .  A
C2844      C2845   1.401       .  A
C2844      S2850   1.706       .  A
C2845      C2846   1.401       .  A
C2845      H2854   1.080       .  S
C2846      C2849   1.370       .  A
S2847      C2848   1.721       .  A
C2848      C2849   1.382       .  A
C2849      H2855   1.081       .  S
S2850      C2851   1.721       .  A
C2851      C2852   1.388       .  A
C2852      H2856   1.082       .  S
C2857      C2862   1.386       .  A
C2857      C2858   1.402       .  A
C2857      S2863   1.708       .  A
C2858      C2859   1.403       .  A
C2858      H2869   1.083       .  S
C2859      C2868   1.370       .  A
C2859      C2860   1.387       .  A
C2860      C2861   1.399       .  A
C2860      S2866   1.705       .  A
C2861      C2862   1.400       .  A
C2861      H2870   1.083       .  S
C2862      C2865   1.366       .  A
S2863      C2864   1.723       .  A
C2864      C2865   1.385       .  A
C2865      H2871   1.083       .  S
S2866      C2867   1.721       .  A
C2867      C2868   1.387       .  A
C2868      H2872   1.083       .  S
C2873      C2878   1.387       .  A
C2873      C2874   1.399       .  A
C2873      S2879   1.703       .  A
C2874      C2875   1.400       .  A
C2874      H2885   1.083       .  S
C2875      C2884   1.367       .  A
C2875      C2876   1.387       .  A
C2876      C2877   1.402       .  A
C2876      S2882   1.709       .  A
C2877      C2878   1.403       .  A
C2877      H2886   1.083       .  S
C2878      C2881   1.371       .  A
S2879      C2880   1.721       .  A
C2880      C2881   1.385       .  A
C2881      H2887   1.082       .  S
S2882      C2883   1.723       .  A
C2883      C2884   1.385       .  A
C2884      H2888   1.083       .  S
C2889      C2894   1.388       .  A
C2889      C2890   1.402       .  A
C2889      S2895   1.710       .  A
C2890      C2891   1.403       .  A
C2890      H2901   1.083       .  S
C2891      C2900   1.372       .  A
C2891      C2892   1.387       .  A
C2892      C2893   1.403       .  A
C2892      S2898   1.709       .  A
C2893      C2894   1.403       .  A
C2893      H2902   1.083       .  S
C2894      C2897   1.372       .  A
S2895      C2896   1.720       .  A
C2896      C2897   1.383       .  A
C2897      H2903   1.082       .  S
S2898      C2899   1.723       .  A
C2899      C2900   1.387       .  A
C2900      H2904   1.083       .  S
C2905      C2910   1.387       .  A
C2905      C2906   1.401       .  A
C2905      S2911   1.707       .  A
C2906      C2907   1.402       .  A
C2906      H2917   1.083       .  S
C2907      C2916   1.370       .  A
C2907      C2908   1.386       .  A
C2908      C2909   1.401       .  A
C2908      S2914   1.706       .  A
C2909      C2910   1.402       .  A
C2909      H2918   1.083       .  S
C2910      C2913   1.370       .  A
S2911      C2912   1.723       .  A
C2912      C2913   1.387       .  A
C2913      H2919   1.083       .  S
S2914      C2915   1.723       .  A
C2915      C2916   1.385       .  A
C2916      H2920   1.079       .  S
C2921      C2926   1.387       .  A
C2921      C2922   1.399       .  A
C2921      S2927   1.704       .  A
C2922      C2923   1.400       .  A
C2922      H2933   1.083       .  S
C2923      C2932   1.368       .  A
C2923      C2924   1.386       .  A
C2924      C2925   1.404       .  A
C2924      S2930   1.711       .  A
C2925      C2926   1.405       .  A
C2925      H2934   1.083       .  S
C2926      C2929   1.373       .  A
S2927      C2928   1.719       .  A
C2928      C2929   1.386       .  A
C2929      H2935   1.083       .  S
S2930      C2931   1.724       .  A
C2931      C2932   1.386       .  A
C2932      H2936   1.083       .  S
C2937      C2942   1.388       .  A
C2937      C2938   1.402       .  A
C2937      S2943   1.709       .  A
C2938      C2939   1.403       .  A
C2938      H2949   1.083       .  S
C2939      C2948   1.371       .  A
C2939      C2940   1.387       .  A
C2940      C2941   1.402       .  A
C2940      S2946   1.709       .  A
C2941      C2942   1.403       .  A
C2941      H2950   1.083       .  S
C2942      C2945   1.371       .  A
S2943      C2944   1.720       .  A
C2944      C2945   1.383       .  A
C2945      H2951   1.082       .  S
S2946      C2947   1.723       .  A
C2947      C2948   1.387       .  A
C2948      H2952   1.083       .  S
C2953      C2958   1.387       .  A
C2953      C2954   1.397       .  A
C2953      S2959   1.703       .  A
C2954      C2955   1.399       .  A
C2954      H2965   1.083       .  S
C2955      C2964   1.365       .  A
C2955      C2956   1.387       .  A
C2956      C2957   1.403       .  A
C2956      S2962   1.710       .  A
C2957      C2958   1.404       .  A
C2957      H2966   1.083       .  S
C2958      C2961   1.371       .  A
S2959      C2960   1.720       .  A
C2960      C2961   1.388       .  A
C2961      H2967   1.083       .  S
S2962      C2963   1.723       .  A
C2963      C2964   1.383       .  A
C2964      H2968   1.083       .  S
C2969      C2974   1.387       .  A
C2969      C2970   1.400       .  A
C2969      S2975   1.703       .  A
C2970      C2971   1.400       .  A
C2970      H2981   1.083       .  S
C2971      C2980   1.368       .  A
C2971      C2972   1.386       .  A
C2972      C2973   1.402       .  A
C2972      S2978   1.706       .  A
C2973      C2974   1.403       .  A
C2973      H2982   1.083       .  S
C2974      C2977   1.372       .  A
S2975      C2976   1.723       .  A
C2976      C2977   1.386       .  A
C2977      H2983   1.083       .  S
S2978      C2979   1.724       .  A
C2979      C2980   1.387       .  A
C2980      H2984   1.083       .  S
C2985      C2990   1.388       .  A
C2985      C2986   1.403       .  A
C2985      S2991   1.710       .  A
C2986      C2987   1.404       .  A
C2986      H2997   1.083       .  S
C2987      C2996   1.373       .  A
C2987      C2988   1.387       .  A
C2988      C2989   1.402       .  A
C2988      S2994   1.707       .  A
C2989      C2990   1.402       .  A
C2989      H2998   1.083       .  S
C2990      C2993   1.371       .  A
S2991      C2992   1.720       .  A
C2992      C2993   1.382       .  A
C2993      H2999   1.083       .  S
S2994      C2995   1.723       .  A
C2995      C2996   1.387       .  A
C2996      H3000   1.083       .  S
C3001      C3006   1.387       .  A
C3001      C3002   1.399       .  A
C3001      S3007   1.703       .  A
C3002      C3003   1.399       .  A
C3002      H3013   1.083       .  S
C3003      C3012   1.368       .  A
C3003      C3004   1.386       .  A
C3004      C3005   1.405       .  A
C3004      S3010   1.709       .  A
C3005      C3006   1.405       .  A
C3005      H3014   1.083       .  S
C3006      C3009   1.374       .  A
S3007      C3008   1.722       .  A
C3008      C3009   1.389       .  A
C3009      H3015   1.083       .  S
S3010      C3011   1.727       .  A
C3011      C3012   1.385       .  A
C3012      H3016   1.083       .  S
C3017      C3022   1.386       .  A
C3017      C3018   1.403       .  A
C3017      S3023   1.708       .  A
C3018      C3019   1.404       .  A
C3018      H3029   1.083       .  S
C3019      C3028   1.372       .  A
C3019      C3020   1.387       .  A
C3020      C3021   1.400       .  A
C3020      S3026   1.705       .  A
C3021      C3022   1.401       .  A
C3021      H3030   1.083       .  S
C3022      C3025   1.369       .  A
S3023      C3024   1.726       .  A
C3024      C3025   1.386       .  A
C3025      H3031   1.083       .  S
S3026      C3027   1.722       .  A
C3027      C3028   1.387       .  A
C3028      H3032   1.083       .  S
C3033      C3038   1.389       .  A
C3033      C3034   1.401       .  A
C3033      S3039   1.707       .  A
C3034      C3035   1.402       .  A
C3034      H3045   1.083       .  S
C3035      C3044   1.369       .  A
C3035      C3036   1.388       .  A
C3036      C3037   1.400       .  A
C3036      S3042   1.705       .  A
C3037      C3038   1.400       .  A
C3037      H3046   1.083       .  S
C3038      C3041   1.368       .  A
S3039      C3040   1.719       .  A
C3040      C3041   1.381       .  A
C3041      H3047   1.083       .  S
S3042      C3043   1.720       .  A
C3043      C3044   1.384       .  A
C3044      H3048   1.083       .  S
C3049      C3054   1.386       .  A
C3049      C3050   1.405       .  A
C3049      S3055   1.711       .  A
C3050      C3051   1.406       .  A
C3050      H3061   1.083       .  S
C3051      C3060   1.374       .  A
C3051      C3052   1.387       .  A
C3052      C3053   1.397       .  A
C3052      S3058   1.701       .  A
C3053      C3054   1.398       .  A
C3053      H3062   1.083       .  S
C3054      C3057   1.365       .  A
S3055      C3056   1.726       .  A
C3056      C3057   1.384       .  A
C3057      H3063   1.083       .  S
S3058      C3059   1.719       .  A
C3059      C3060   1.389       .  A
C3060      H3064   1.083       .  S
C3065      C3070   1.387       .  A
C3065      C3066   1.398       .  A
C3065      S3071   1.704       .  A
C3066      C3067   1.400       .  A
C3066      H3077   1.083       .  S
C3067      C3076   1.366       .  A
C3067      C3068   1.386       .  A
C3068      C3069   1.403       .  A
C3068      S3074   1.711       .  A
C3069      C3070   1.405       .  A
C3069      H3078   1.083       .  S
C3070      C3073   1.371       .  A
S3071      C3072   1.720       .  A
C3072      C3073   1.387       .  A
C3073      H3079   1.082       .  S
S3074      C3075   1.725       .  A
C3075      C3076   1.385       .  A
C3076      H3080   1.083       .  S
C3081      C3086   1.389       .  A
C3081      C3082   1.399       .  A
C3081      S3087   1.705       .  A
C3082      C3083   1.400       .  A
C3082      H3093   1.083       .  S
C3083      C3092   1.368       .  A
C3083      C3084   1.387       .  A
C3084      C3085   1.401       .  A
C3084      S3090   1.706       .  A
C3085      C3086   1.402       .  A
C3085      H3094   1.083       .  S
C3086      C3089   1.369       .  A
S3087      C3088   1.717       .  A
C3088      C3089   1.382       .  A
C3089      H3095   1.082       .  S
S3090      C3091   1.722       .  A
C3091      C3092   1.383       .  A
C3092      H3096   1.083       .  S
C3097      C3102   1.386       .  A
C3097      C3098   1.400       .  A
C3097      S3103   1.707       .  A
C3098      C3099   1.402       .  A
C3098      H3109   1.083       .  S
C3099      C3108   1.367       .  A
C3099      C3100   1.387       .  A
C3100      C3101   1.398       .  A
C3100      S3106   1.705       .  A
C3101      C3102   1.400       .  A
C3101      H3110   1.083       .  S
C3102      C3105   1.364       .  A
S3103      C3104   1.723       .  A
C3104      C3105   1.385       .  A
C3105      H3111   1.083       .  S
S3106      C3107   1.720       .  A
C3107      C3108   1.385       .  A
C3108      H3112   1.083       .  S
C3113      C3118   1.387       .  A
C3113      C3114   1.396       .  A
C3113      S3119   1.700       .  A
C3114      C3115   1.397       .  A
C3114      H3125   1.083       .  S
C3115      C3124   1.364       .  A
C3115      C3116   1.387       .  A
C3116      C3117   1.403       .  A
C3116      S3122   1.710       .  A
C3117      C3118   1.404       .  A
C3117      H3126   1.083       .  S
C3118      C3121   1.371       .  A
S3119      C3120   1.719       .  A
C3120      C3121   1.386       .  A
C3121      H3127   1.082       .  S
S3122      C3123   1.724       .  A
C3123      C3124   1.383       .  A
C3124      H3128   1.083       .  S
C3129      C3134   1.388       .  A
C3129      C3130   1.402       .  A
C3129      S3135   1.709       .  A
C3130      C3131   1.403       .  A
C3130      H3141   1.083       .  S
C3131      C3140   1.371       .  A
C3131      C3132   1.387       .  A
C3132      C3133   1.404       .  A
C3132      S3138   1.712       .  A
C3133      C3134   1.405       .  A
C3133      H3142   1.083       .  S
C3134      C3137   1.373       .  A
S3135      C3136   1.719       .  A
C3136      C3137   1.384       .  A
C3137      H3143   1.082       .  S
S3138      C3139   1.724       .  A
C3139      C3140   1.386       .  A
C3140      H3144   1.083       .  S
