geometry optimzed in LAMMPS
_audit_creation_date              2020-11-30 
_audit_creation_method            'lammps2cif' 
_symmetry_space_group_name_H-M    'P1' 
_symmetry_Int_Tables_number       1 
_symmetry_cell_setting            triclinic 
loop_ 
_symmetry_equiv_pos_as_xyz 
  x,y,z 
_cell_length_a                    43.4881139 
_cell_length_b                    43.345785057140034 
_cell_length_c                    48.30280441755906 
_cell_angle_alpha                 89.99439302106329 
_cell_angle_beta                  89.99435383468142 
_cell_angle_gamma                 90.21285204818975 
loop_ 
_atom_site_label 
_atom_site_type_symbol 
_atom_site_fract_x 
_atom_site_fract_y 
_atom_site_fract_z 
_atom_site_charge 
C1          C  0.95628925  0.85219007  0.13706170     0.82500
N2          N  0.94552246  0.85917356  0.11144122    -0.75800
C3          C  0.95936521  0.88129672  0.09597047     0.84900
N4          N  0.98404607  0.89673217  0.10615999    -0.75800
C5          C  0.99519555  0.89018582  0.13173524     0.85000
N6          N  0.98120675  0.86783695  0.14739412    -0.77500
C7          C  0.86846708  0.94624610  0.94249693     0.82500
N8          N  0.88405848  0.97197508  0.93376726    -0.75800
C9          C  0.91039075  0.98094284  0.94709594     0.84900
N10         N  0.92079150  0.96417755  0.96888166    -0.75800
C11         C  0.90542358  0.93866276  0.97748029     0.85000
N12         N  0.87931945  0.92978885  0.96432294    -0.77500
C13         C  0.14642873  0.02946064  0.13612365     0.82500
N14         N  0.13783128  0.04240459  0.11175040    -0.75800
C15         C  0.11346330  0.03112345  0.09747888     0.84900
N16         N  0.09736469  0.00682160  0.10761835    -0.75800
C17         C  0.10545312  0.99349016  0.13195692     0.85000
N18         N  0.13007578  0.00491904  0.14646869    -0.77500
C19         C  0.04833874  0.13374093  0.94956312     0.82500
N20         N  0.02355593  0.11804439  0.93897657    -0.75800
C21         C  0.01388313  0.09123595  0.95130559     0.84900
N22         N  0.02906392  0.08042644  0.97380508    -0.75800
C23         C  0.05359703  0.09584713  0.98421029     0.85000
N24         N  0.06318923  0.12240338  0.97210053    -0.77500
C25         C  0.55829042  0.62172048  0.16087049     0.82500
N26         N  0.57156455  0.61273402  0.13674470    -0.75800
C27         C  0.56054320  0.58802630  0.12264527     0.84900
N28         N  0.53603292  0.57214126  0.13262959    -0.75800
C29         C  0.52239728  0.58064961  0.15672328     0.85000
N30         N  0.53356765  0.60559158  0.17101018    -0.77500
C31         C  0.62984997  0.55554737  0.95302577     0.82500
N32         N  0.61202126  0.53302888  0.94129926    -0.75800
C33         C  0.59127177  0.51720011  0.95714998     0.84900
N34         N  0.58828620  0.52424398  0.98439426    -0.75800
C35         C  0.60587390  0.54663260  0.99603204     0.85000
N36         N  0.62650085  0.56233347  0.98031597    -0.77500
C37         C  0.37131415  0.44174069  0.15428311     0.82500
N38         N  0.37767784  0.43406664  0.12769564    -0.75800
C39         C  0.40075644  0.44825194  0.11384853     0.84900
N40         N  0.41778270  0.47027234  0.12653851    -0.75800
C41         C  0.41194962  0.47839413  0.15312937     0.85000
N42         N  0.38856848  0.46402765  0.16727293    -0.77500
C43         C  0.43802248  0.38233912  0.94390390     0.82500
N44         N  0.46335263  0.39738274  0.93370822    -0.75800
C45         C  0.47747368  0.41960971  0.94936772     0.84900
N46         N  0.46622335  0.42650719  0.97478874    -0.76600
C47         C  0.44115318  0.41166045  0.98477532     0.85000
N48         N  0.42712487  0.38964952  0.96937862    -0.77500
C49         C  0.63048067  0.94316109  0.65429709     0.82500
N50         N  0.61906856  0.92843311  0.63177028    -0.75800
C51         C  0.59203973  0.93719478  0.62047459     0.84900
N52         N  0.57620926  0.96099054  0.63157741    -0.75800
C53         C  0.58710479  0.97607358  0.65416743     0.85000
N54         N  0.61447529  0.96719769  0.66571633    -0.77500
C55         C  0.56632224  0.86096924  0.45403880     0.82500
N56         N  0.54436331  0.87776530  0.44050121    -0.75800
C57         C  0.52715540  0.89871328  0.45487059     0.84900
N58         N  0.53220759  0.90282286  0.48230674    -0.75800
C59         C  0.55394437  0.88625150  0.49563923     0.85000
N60         N  0.57105192  0.86549429  0.48151336    -0.77500
C61         C  0.38486894  0.04306811  0.44237435     0.82500
N62         N  0.39263098  0.05657552  0.46679297    -0.75800
C63         C  0.41684600  0.04598591  0.48167199     0.84900
N64         N  0.43337393  0.02174837  0.47216049    -0.75800
C65         C  0.42599184  0.00801783  0.44778252     0.85000
N66         N  0.40162191  0.01868427  0.43276857    -0.77500
C67         C  0.44137432  0.11781883  0.65200886     0.82500
N68         N  0.46444622  0.10153459  0.66451470    -0.75800
C69         C  0.48106980  0.08063853  0.64952773     0.84900
N70         N  0.47438279  0.07611911  0.62238749    -0.75800
C71         C  0.45153335  0.09217316  0.60998533     0.85000
N72         N  0.43503598  0.11290749  0.62480940    -0.77500
C73         C  0.21737655  0.07745005  0.81186132     0.82500
N74         N  0.20817974  0.09549023  0.83321743    -0.75800
C75         C  0.22538580  0.12030998  0.84055677     0.84900
N76         N  0.25077326  0.12766215  0.82597913    -0.75800
C77         C  0.25970393  0.11010812  0.80444775     0.85000
N78         N  0.24271074  0.08523399  0.79696518    -0.77500
N79         N  0.21840665  0.89994822  0.70346227    -0.25000
N80         N  0.21349807  0.89743254  0.67657444    -0.32900
C81         C  0.23320589  0.87668852  0.66603915     0.03300
C82         C  0.25125444  0.86599667  0.68746669     0.09300
C83         C  0.24142621  0.88112477  0.71087651    -0.03800
H84         H  0.23418521  0.86985941  0.64450927     0.10000
H85         H  0.25034732  0.87880255  0.73168669     0.11200
Cu86       Cu  0.17934177  0.92194027  0.65658213     0.44200
Cu87       Cu  0.19416775  0.92964224  0.72818717     0.42000
Cu88       Cu  0.13374033  0.97621025  0.69784426     0.43900
N89         N  0.13698810  0.93919732  0.64502053    -0.32400
N90         N  0.11975228  0.95776658  0.66015456    -0.26700
C91         C  0.09141752  0.95882167  0.64896584    -0.02800
C92         C  0.09099668  0.94040217  0.62555611     0.09400
C93         C  0.12023376  0.92836028  0.62382724     0.03200
H94         H  0.07185759  0.96982878  0.65862476     0.10900
H95         H  0.12773475  0.91012541  0.61010787     0.10000
N96         N  0.15488652  0.98614518  0.73539141    -0.33900
N97         N  0.17615983  0.96823720  0.74642946    -0.26100
C98         C  0.18731194  0.98154089  0.76936049    -0.01300
C99         C  0.17233722  0.00904987  0.77311664     0.07300
C100        C  0.15209768  0.01160319  0.75115703     0.05400
H101        H  0.20657716  0.97287237  0.78118738     0.10500
H102        H  0.13778194  0.03119105  0.74611765     0.09300
C103        C  0.33443104  0.19519000  0.72144082     0.88700
C104        C  0.30404469  0.20651420  0.70813935    -0.51500
C105        C  0.28029740  0.20942639  0.72676834     0.11700
C106        C  0.28937644  0.20079239  0.75664503     0.22600
C107        C  0.34116564  0.21826714  0.74510387    -0.52200
C108        C  0.31742400  0.22112275  0.76362973     0.11800
C109        C  0.32590319  0.16514920  0.73604366    -0.51800
C110        C  0.30263940  0.16809086  0.75433553     0.12300
H111        H  0.30156141  0.21149736  0.68622849     0.16900
H112        H  0.27025850  0.20277482  0.77182253     0.02600
H113        H  0.36287038  0.23047598  0.74736580     0.17200
H114        H  0.33753664  0.14333240  0.73246974     0.16900
C115        C  0.14334867  0.22607593  0.88889200     0.88700
C116        C  0.16957520  0.24889382  0.89735731    -0.51500
C117        C  0.19417127  0.24860056  0.87912479     0.11700
C118        C  0.18999610  0.22600899  0.85499170     0.22600
C119        C  0.13493869  0.23512681  0.85901402    -0.52200
C120        C  0.15946791  0.23522148  0.84135608     0.11800
C121        C  0.15927124  0.19495478  0.88643627    -0.51800
C122        C  0.18349958  0.19499934  0.86908053     0.12300
H123        H  0.16899709  0.26308965  0.91585191     0.16900
H124        H  0.20976990  0.22543332  0.84039513     0.02600
H125        H  0.11174909  0.24081415  0.85244968     0.17200
H126        H  0.15187328  0.17430362  0.89743665     0.16900
C127        C  0.92671515  0.75173247  0.80842825     0.82500
N128        N  0.91103628  0.76933786  0.82693135    -0.75800
C129        C  0.88103973  0.76275649  0.83218683     0.84900
N130        N  0.86668690  0.74001087  0.81823464    -0.75800
C131        C  0.88194041  0.72313868  0.79940969     0.85000
N132        N  0.91188581  0.72920951  0.79411167    -0.77500
N133        N  0.02474482  0.83434544  0.64712178    -0.25000
N134        N  0.04255220  0.82283948  0.62755799    -0.32900
C135        C  0.04916056  0.84531877  0.60929635     0.03300
C136        C  0.03470557  0.87214721  0.61767342     0.09300
C137        C  0.01950127  0.86424755  0.64174638    -0.03800
H138        H  0.06584366  0.84311391  0.59279414     0.10000
H139        H  0.00839583  0.87989545  0.65602286     0.11200
Cu140      Cu  0.06192429  0.77915705  0.62954189     0.44200
Cu141      Cu  0.01418040  0.81178169  0.68347819     0.42000
Cu142      Cu  0.05153006  0.73913218  0.69511365     0.43900
N143        N  0.08108015  0.73650122  0.63863372    -0.32400
N144        N  0.07707270  0.72201466  0.66249257    -0.26700
C145        C  0.09275149  0.69536571  0.66207421    -0.02800
C146        C  0.10723869  0.69304523  0.63680381     0.09400
C147        C  0.09957374  0.71942960  0.62241740     0.03200
H148        H  0.09385766  0.67915027  0.67909275     0.10900
H149        H  0.10710793  0.72593766  0.60186545     0.10000
N150        N  0.02543414  0.76128726  0.72476616    -0.33900
N151        N  0.01178859  0.78803480  0.72041252    -0.26100
C152        C  0.99517166  0.79551118  0.74283619    -0.01300
C153        C  0.99873252  0.77246876  0.76223377     0.07300
C154        C  0.01772361  0.75093440  0.75007490     0.05400
H155        H  0.98029782  0.81541699  0.74427699     0.10500
H156        H  0.02420048  0.72869495  0.75837966     0.09300
C157        C  0.79326371  0.65177591  0.71679040     0.88700
C158        C  0.77009542  0.64607149  0.74067440    -0.51500
C159        C  0.76691036  0.67090337  0.75814830     0.11700
C160        C  0.78701624  0.69870063  0.75013397     0.22600
C161        C  0.78174025  0.68153824  0.70224368    -0.52200
C162        C  0.77839464  0.70621989  0.71994907     0.11800
C163        C  0.82293870  0.66135195  0.73125634    -0.51800
C164        C  0.81965438  0.68546771  0.74863957     0.12300
H165        H  0.75818964  0.62430369  0.74388827     0.16900
H166        H  0.78481300  0.71857880  0.76454516     0.02600
H167        H  0.77668191  0.68286178  0.68027005     0.17200
H168        H  0.84471425  0.64941520  0.72863725     0.16900
C169        C  0.77897360  0.85270058  0.87878713     0.88700
C170        C  0.76742468  0.85910289  0.84918637    -0.51500
C171        C  0.76794333  0.83364789  0.83245634     0.11700
C172        C  0.78021937  0.80446624  0.84664592     0.22600
C173        C  0.75873273  0.82543470  0.88934848    -0.52200
C174        C  0.75951873  0.80004073  0.87208542     0.11800
C175        C  0.81091760  0.83892115  0.87514448    -0.51800
C176        C  0.81156012  0.81391356  0.85863533     0.12300
H177        H  0.75946138  0.88151794  0.84221071     0.16900
H178        H  0.78116108  0.78397288  0.83282265     0.02600
H179        H  0.74541337  0.82613579  0.90833905     0.17200
H180        H  0.83152977  0.84813364  0.88494568     0.16900
C181        C  0.26957014  0.41303710  0.74283086     0.82500
N182        N  0.24754274  0.39403099  0.73237686    -0.75800
C183        C  0.24036642  0.36765402  0.74587778     0.84900
N184        N  0.25487839  0.36028272  0.76945401    -0.75800
C185        C  0.27661655  0.37898342  0.78001930     0.85000
N186        N  0.28433690  0.40562358  0.76681331    -0.77500
N187        N  0.20064370  0.58734946  0.62722777    -0.25000
N188        N  0.21053464  0.60158123  0.60468557    -0.32900
C189        C  0.19149298  0.62510890  0.59887578     0.03300
C190        C  0.16853099  0.62536348  0.61859407     0.09300
C191        C  0.17500770  0.60130981  0.63630751    -0.03800
H192        H  0.19484783  0.64149061  0.58222481     0.10000
H193        H  0.16278874  0.59518415  0.65505592     0.11200
Cu194      Cu  0.25123631  0.59038601  0.58482205     0.44200
Cu195      Cu  0.22408711  0.55181910  0.64634719     0.42000
Cu196      Cu  0.29902247  0.53292501  0.61874684     0.43900
N197        N  0.29700713  0.58262991  0.57529563    -0.32400
N198        N  0.31440175  0.56191292  0.58773699    -0.26700
C199        C  0.34392829  0.56704272  0.58090802    -0.02800
C200        C  0.34528455  0.59213987  0.56331484     0.09400
C201        C  0.31508412  0.60135197  0.56020971     0.03200
H202        H  0.36321327  0.55572240  0.59071236     0.10900
H203        H  0.30723194  0.62244909  0.55057986     0.10000
N204        N  0.28119650  0.51371242  0.65446921    -0.33900
N205        N  0.25382510  0.52071459  0.66456396    -0.26100
C206        C  0.24900679  0.50438879  0.68781354    -0.01300
C207        C  0.27465462  0.48656875  0.69255458     0.07300
C208        C  0.29456536  0.49275225  0.67104271     0.05400
H209        H  0.22818239  0.50511908  0.70007429     0.10500
H210        H  0.31687660  0.48251971  0.66743906     0.09300
C211        C  0.14209680  0.26626248  0.71148890     0.88700
C212        C  0.16878891  0.24434154  0.70285339    -0.51500
C213        C  0.19359476  0.24560925  0.72074356     0.11700
C214        C  0.18910068  0.26812085  0.74488651     0.22600
C215        C  0.13424747  0.25716373  0.74146746    -0.52200
C216        C  0.15895925  0.25803235  0.75889086     0.11800
C217        C  0.15719864  0.29798015  0.71359489    -0.51800
C218        C  0.18165650  0.29881628  0.73071942     0.12300
H219        H  0.16841741  0.23015277  0.68434623     0.16900
H220        H  0.20910316  0.26940418  0.75919608     0.02600
H221        H  0.11128603  0.25075693  0.74827365     0.17200
H222        H  0.14974466  0.31802856  0.70184766     0.16900
C223        C  0.33427042  0.30068638  0.87658523     0.88700
C224        C  0.30357361  0.29035177  0.88995868    -0.51500
C225        C  0.27988752  0.28732784  0.87129255     0.11700
C226        C  0.28939598  0.29506410  0.84120223     0.22600
C227        C  0.34058014  0.27684630  0.85352194    -0.52200
C228        C  0.31698580  0.27398202  0.83486667     0.11800
C229        C  0.32676597  0.33046789  0.86125597    -0.51800
C230        C  0.30368903  0.32759214  0.84277039     0.12300
H231        H  0.30091792  0.28575810  0.91192726     0.16900
H232        H  0.27042103  0.29299579  0.82588419     0.02600
H233        H  0.36203449  0.26427861  0.85161851     0.17200
H234        H  0.33969003  0.35182287  0.86380602     0.16900
C235        C  0.57028661  0.74026100  0.76669473     0.82500
N236        N  0.58928999  0.75932314  0.75221876    -0.75800
C237        C  0.61776226  0.76556483  0.76213883     0.84900
N238        N  0.62726875  0.75272730  0.78590670    -0.75800
C239        C  0.60876610  0.73363753  0.80022637     0.85000
N240        N  0.58016564  0.72683973  0.79059651    -0.77500
N241        N  0.36140559  0.77507451  0.68603641    -0.25000
N242        N  0.34979834  0.76813671  0.66150805    -0.32900
C243        C  0.32417298  0.78467440  0.65735098     0.03300
C244        C  0.31958342  0.80282616  0.68034109     0.09300
C245        C  0.34347357  0.79637015  0.69818714    -0.03800
H246        H  0.31015777  0.78372298  0.63885450     0.10000
H247        H  0.34775109  0.80658053  0.71827666     0.11200
Cu248      Cu  0.36929790  0.73690013  0.63462408     0.44200
Cu249      Cu  0.40158421  0.75581995  0.70095215     0.42000
Cu250      Cu  0.44019341  0.70098535  0.65501148     0.43900
N251        N  0.38970164  0.70167966  0.61270700    -0.32400
N252        N  0.41546036  0.68795274  0.62020837    -0.26700
C253        C  0.42014766  0.66346297  0.60360607    -0.02800
C254        C  0.39641139  0.66215854  0.58459367     0.09400
C255        C  0.37745606  0.68651788  0.59113926     0.03200
H256        H  0.43826018  0.64670731  0.60642042     0.10900
H257        H  0.35509908  0.69139498  0.58234762     0.10000
N258        N  0.45824116  0.71686360  0.69214345    -0.33900
N259        N  0.44409032  0.73641219  0.70886361    -0.26100
C260        C  0.46243753  0.74261404  0.73057314    -0.01300
C261        C  0.48918884  0.72607134  0.72735868     0.07300
C262        C  0.48598497  0.71015117  0.70280481     0.05400
H263        H  0.45702867  0.75869219  0.74699902     0.10500
H264        H  0.50281661  0.69537630  0.69303686     0.09300
C265        C  0.70066697  0.66181310  0.87784288     0.88700
C266        C  0.71841878  0.65327786  0.85133056    -0.51500
C267        C  0.71973997  0.67654779  0.83222495     0.11700
C268        C  0.70311079  0.70623213  0.84156336     0.22600
C269        C  0.71650772  0.69142878  0.88883534    -0.52200
C270        C  0.71773213  0.71487631  0.86967390     0.11800
C271        C  0.66914943  0.67238212  0.86783521    -0.51800
C272        C  0.67033734  0.69544773  0.84906700     0.12300
H273        H  0.72866128  0.63078688  0.84787923     0.16900
H274        H  0.70380575  0.72509363  0.82597527     0.02600
H275        H  0.72553486  0.69368817  0.90969445     0.17200
H276        H  0.64758444  0.66217316  0.87474174     0.16900
C277        C  0.72279879  0.84541659  0.70584145     0.88700
C278        C  0.73651632  0.85342970  0.73427674    -0.51500
C279        C  0.73666280  0.82924959  0.75233967     0.11700
C280        C  0.72295509  0.79929058  0.74042459     0.22600
C281        C  0.74165661  0.81720587  0.69544835    -0.52200
C282        C  0.74159062  0.79286002  0.71397779     0.11800
C283        C  0.69093841  0.83236106  0.71197559    -0.51800
C284        C  0.69100228  0.80849041  0.72982094     0.12300
H285        H  0.74492244  0.87626569  0.73974437     0.16900
H286        H  0.72256678  0.77977844  0.75537139     0.02600
H287        H  0.75337365  0.81646738  0.67562252     0.17200
H288        H  0.66982132  0.84146717  0.70311997     0.16900
C289        C  0.80114920  0.58920744  0.25167635     0.82500
N290        N  0.77226772  0.59933281  0.24624060    -0.75800
C291        C  0.75638772  0.61477474  0.26589111     0.84900
N292        N  0.76953761  0.62080987  0.29046166    -0.75800
C293        C  0.79828375  0.61120058  0.29597195     0.85000
N294        N  0.81464210  0.59575178  0.27641319    -0.77500
N295        N  0.73446387  0.45288977  0.12852709    -0.25000
N296        N  0.74291133  0.42675939  0.11679523    -0.32900
C297        C  0.72151256  0.40504320  0.12231973     0.03300
C298        C  0.69847370  0.41850181  0.13796389     0.09300
C299        C  0.70759916  0.44869480  0.14168596    -0.03800
H300        H  0.72359955  0.38090056  0.11695182     0.10000
H301        H  0.69693386  0.46563485  0.15501971     0.11200
Cu302      Cu  0.78540851  0.42242418  0.09754561     0.44200
Cu303      Cu  0.76296734  0.49064613  0.13195025     0.42000
Cu304      Cu  0.84360192  0.47963543  0.12046398     0.43900
N305        N  0.83029936  0.42514432  0.08289612    -0.32400
N306        N  0.85109550  0.44556476  0.09114927    -0.26700
C307        C  0.87816905  0.43902456  0.07912337    -0.02800
C308        C  0.87415899  0.41358955  0.06236025     0.09400
C309        C  0.84372115  0.40516641  0.06542130     0.03200
H310        H  0.89957325  0.45084605  0.08356010     0.10900
H311        H  0.83256224  0.38492507  0.05690434     0.10000
N312        N  0.82659502  0.51077263  0.14909272    -0.33900
N313        N  0.79673947  0.51539138  0.15190545    -0.26100
C314        C  0.79188642  0.53510364  0.17275220    -0.01300
C315        C  0.81992229  0.54332056  0.18366381     0.07300
C316        C  0.84165923  0.52748646  0.16840637     0.05400
H317        H  0.76943443  0.54136847  0.18056587     0.10500
H318        H  0.86626142  0.52710387  0.17174338     0.09300
C319        C  0.65822538  0.71000597  0.22311743     0.88700
C320        C  0.65378629  0.72818873  0.25030000    -0.51500
C321        C  0.67986952  0.72972204  0.26618873     0.11700
C322        C  0.70754841  0.71280672  0.25366588     0.22600
C323        C  0.68607036  0.72582889  0.20853688    -0.52200
C324        C  0.71204209  0.72721131  0.22491925     0.11800
C325        C  0.67029733  0.67858103  0.23206623    -0.51800
C326        C  0.69587114  0.68004250  0.24775490     0.12300
H327        H  0.63216218  0.73862307  0.25641868     0.16900
H328        H  0.72854923  0.71354353  0.26679543     0.02600
H329        H  0.68538074  0.73456294  0.18748786     0.17200
H330        H  0.66015550  0.65675461  0.22558801     0.16900
C331        C  0.86366896  0.70182003  0.37810075     0.88700
C332        C  0.86959725  0.71991670  0.35102911    -0.51500
C333        C  0.84457111  0.72079868  0.33378335     0.11700
C334        C  0.81628664  0.70363691  0.34518393     0.22600
C335        C  0.83511168  0.71722068  0.39125707    -0.52200
C336        C  0.81015619  0.71825992  0.37378086     0.11800
C337        C  0.85260583  0.67012834  0.36862624    -0.51800
C338        C  0.82827093  0.67101137  0.35137492     0.12300
H339        H  0.89161813  0.73022902  0.34572373     0.16900
H340        H  0.79619130  0.70404053  0.33095727     0.02600
H341        H  0.83480012  0.72660799  0.41209099     0.17200
H342        H  0.86440063  0.64873737  0.37362439     0.16900
C343        C  0.43198972  0.26438534  0.30790616     0.82500
N344        N  0.41884698  0.24329870  0.32526132    -0.75800
C345        C  0.38973130  0.23336118  0.31997868     0.84900
N346        N  0.37430962  0.24411148  0.29793557    -0.75800
C347        C  0.38730680  0.26472552  0.28082398     0.85000
N348        N  0.41612410  0.27522120  0.28572638    -0.77500
N349        N  0.62243763  0.35899191  0.23306587    -0.25000
N350        N  0.65019930  0.36433501  0.24320297    -0.32900
C351        C  0.66784525  0.37727290  0.22360391     0.03300
C352        C  0.65048300  0.38027100  0.19997720     0.09300
C353        C  0.62174303  0.36850377  0.20646065    -0.03800
H354        H  0.69191970  0.38304754  0.22612620     0.10000
H355        H  0.60206791  0.36650823  0.19285172     0.11200
Cu356      Cu  0.66501998  0.35027985  0.28162552     0.44200
Cu357      Cu  0.58806610  0.33787713  0.25647947     0.42000
Cu358      Cu  0.61423008  0.30346554  0.32191372     0.43900
N359        N  0.68008144  0.31686476  0.30855662    -0.32400
N360        N  0.66142401  0.29899727  0.32300786    -0.26700
C361        C  0.67752582  0.27514903  0.33316827    -0.02800
C362        C  0.70775345  0.27828099  0.32475489     0.09400
C363        C  0.70849971  0.30493215  0.30914904     0.03200
H364        H  0.66729383  0.25524412  0.34313898     0.10900
H365        H  0.72729719  0.31288849  0.29627273     0.10000
N366        N  0.56889094  0.30495780  0.30934164    -0.33900
N367        N  0.55943734  0.31693381  0.28560274    -0.26100
C368        C  0.52893193  0.31245701  0.28335367    -0.01300
C369        C  0.51895947  0.29710646  0.30673015     0.07300
C370        C  0.54472184  0.29255645  0.32274631     0.05400
H371        H  0.51518439  0.31928779  0.26572573     0.10500
H372        H  0.54604439  0.28040197  0.34228146     0.09300
C373        C  0.28873726  0.33027018  0.20651279     0.88700
C374        C  0.27517502  0.30110668  0.19210353    -0.51500
C375        C  0.27475231  0.27542983  0.20907644     0.11700
C376        C  0.28770750  0.28159447  0.23819692     0.22600
C377        C  0.26945727  0.33435904  0.23303986    -0.52200
C378        C  0.26887991  0.30877231  0.24961317     0.11800
C379        C  0.32034183  0.32028137  0.21657450    -0.51800
C380        C  0.31982521  0.29510184  0.23287782     0.12300
H381        H  0.26721189  0.30074453  0.17081243     0.16900
H382        H  0.28773649  0.26102342  0.25195735     0.02600
H383        H  0.25787929  0.35568708  0.23844614     0.17200
H384        H  0.34154705  0.33256002  0.21171435     0.16900
C385        C  0.29767731  0.13536695  0.37095430     0.88700
C386        C  0.27568529  0.16088952  0.38157305    -0.51500
C387        C  0.27400950  0.18592566  0.36407044     0.11700
C388        C  0.29427554  0.18290797  0.33812704     0.22600
C389        C  0.28596202  0.12738231  0.34169523    -0.52200
C390        C  0.28398313  0.15239803  0.32450263     0.11800
C391        C  0.32835723  0.15177131  0.36649476    -0.51800
C392        C  0.32662872  0.17653465  0.34968343     0.12300
H393        H  0.26310684  0.15943501  0.40094416     0.16900
H394        H  0.29317368  0.20320469  0.32408691     0.02600
H395        H  0.27951903  0.10421671  0.33531324     0.17200
H396        H  0.34977405  0.14463697  0.37617708     0.16900
C397        C  0.76831939  0.92464285  0.29714099     0.82500
N398        N  0.78563132  0.90786146  0.27927037    -0.75800
C399        C  0.79049711  0.87758363  0.28437995     0.84900
N400        N  0.77786704  0.86411747  0.30672159    -0.75800
C401        C  0.76043989  0.88050255  0.32435178     0.85000
N402        N  0.75510984  0.91088713  0.31953588    -0.77500
N403        N  0.80459510  0.11105536  0.18391158    -0.25000
N404        N  0.80133312  0.14108439  0.18758591    -0.32900
C405        C  0.81425305  0.15606253  0.16621393     0.03300
C406        C  0.82610476  0.13449162  0.14821155     0.09300
C407        C  0.81997369  0.10615024  0.16011446    -0.03800
H408        H  0.81644546  0.18088455  0.16473737     0.10000
H409        H  0.82726692  0.08377282  0.15272881     0.11200
Cu410      Cu  0.78315675  0.16090248  0.22289776     0.44200
Cu411      Cu  0.78998354  0.07889435  0.21278441     0.42000
Cu412      Cu  0.75856668  0.11005074  0.27721684     0.43900
N413        N  0.76822634  0.17614607  0.26117707    -0.32400
N414        N  0.75919154  0.15741135  0.28120130    -0.26700
C415        C  0.74988723  0.17426183  0.30299202    -0.02800
C416        C  0.75359598  0.20497438  0.29634052     0.09400
C417        C  0.76497472  0.20546738  0.26968193     0.03200
H418        H  0.74029565  0.16483442  0.32187255     0.10900
H419        H  0.76965825  0.22558851  0.25707484     0.10000
N420        N  0.76184211  0.06362486  0.26842003    -0.33900
N421        N  0.77333953  0.05235145  0.24516943    -0.26100
C422        C  0.77334901  0.02141730  0.24667777    -0.01300
C423        C  0.76120174  0.01306175  0.27194308     0.07300
C424        C  0.75421777  0.04017791  0.28532157     0.05400
H425        H  0.78226685  0.00622608  0.23083367     0.10500
H426        H  0.74510277  0.04278667  0.30603841     0.09300
C427        C  0.67689776  0.78559538  0.38960741     0.88700
C428        C  0.66667484  0.77233686  0.36155914    -0.51500
C429        C  0.68977941  0.77050000  0.34255461     0.11700
C430        C  0.72102480  0.78239099  0.35326966     0.22600
C431        C  0.70412835  0.76488555  0.39890528    -0.52200
C432        C  0.72739064  0.76331913  0.37950635     0.11800
C433        C  0.69157202  0.81672443  0.38292413    -0.51800
C434        C  0.71455381  0.81508179  0.36419842     0.12300
H435        H  0.64329002  0.76487975  0.35720198     0.16900
H436        H  0.73974800  0.78138291  0.33761976     0.02600
H437        H  0.70497427  0.75299073  0.41866278     0.17200
H438        H  0.68427408  0.83840373  0.39212605     0.16900
C439        C  0.85319825  0.77594757  0.20927334     0.88700
C440        C  0.86181601  0.75822274  0.23584357    -0.51500
C441        C  0.83920519  0.75837496  0.25555781     0.11700
C442        C  0.81015175  0.77606840  0.24681199     0.22600
C443        C  0.82252633  0.76119810  0.19932254    -0.52200
C444        C  0.79982991  0.76135269  0.21926076     0.11800
C445        C  0.84436413  0.80809925  0.21918103    -0.51800
C446        C  0.82214339  0.80814598  0.23863966     0.12300
H447        H  0.88403145  0.74743375  0.23906542     0.16900
H448        H  0.79196296  0.77657631  0.26298706     0.02600
H449        H  0.81905734  0.75200171  0.17865202     0.17200
H450        H  0.85532728  0.82920228  0.21190313     0.16900
C451        C  0.08538173  0.24994940  0.25370569     0.82500
N452        N  0.09311248  0.26135502  0.27901831    -0.75800
C453        C  0.11650909  0.24811419  0.29333194     0.84900
N454        N  0.13245587  0.22469711  0.28209776    -0.75800
C455        C  0.12518933  0.21376402  0.25690515     0.85000
N456        N  0.10185135  0.22654069  0.24240355    -0.77500
N457        N  0.96037527  0.31745542  0.08681756    -0.25000
N458        N  0.94319624  0.29977668  0.07062785    -0.32900
C459        C  0.92842221  0.31772987  0.05230344     0.03300
C460        C  0.93674197  0.34801713  0.05702951     0.09300
C461        C  0.95689681  0.34699435  0.07907379    -0.03800
H462        H  0.91057393  0.30960015  0.03846314     0.10000
H463        H  0.96599371  0.36651516  0.09044552     0.11200
Cu464      Cu  0.93427144  0.25332458  0.07700542     0.44200
Cu465      Cu  0.98310989  0.30294998  0.12227134     0.42000
Cu466      Cu  0.96667589  0.22464222  0.13944292     0.43900
N467        N  0.92162783  0.21128927  0.09404461    -0.32400
N468        N  0.93451621  0.20072089  0.11686890    -0.26700
C469        C  0.91967875  0.17520266  0.12513225    -0.02800
C470        C  0.89620045  0.16930745  0.10672529     0.09400
C471        C  0.89780850  0.19278723  0.08734032     0.03200
H472        H  0.92377075  0.16361304  0.14463487     0.10900
H473        H  0.88146331  0.19751856  0.07100297     0.10000
N474        N  0.99207957  0.25336273  0.16439269    -0.33900
N475        N  0.99864876  0.28239168  0.15842779    -0.26100
C476        C  0.01658497  0.29404714  0.17868072    -0.01300
C477        C  0.02092674  0.27111326  0.19819529     0.07300
C478        C  0.00530019  0.24572133  0.18846461     0.05400
H479        H  0.02629740  0.31707191  0.17878903     0.10500
H480        H  0.00438344  0.22299592  0.19772043     0.09300
C481        C  0.20770033  0.31986635  0.37119600     0.88700
C482        C  0.22473655  0.29119570  0.38255776    -0.51500
C483        C  0.22608067  0.26723435  0.36390974     0.11700
C484        C  0.21026449  0.27432049  0.33610239     0.22600
C485        C  0.22446681  0.32803162  0.34401553    -0.52200
C486        C  0.22588589  0.30404863  0.32564270     0.11800
C487        C  0.17621148  0.30790168  0.36223700    -0.51800
C488        C  0.17749172  0.28430722  0.34404015     0.12300
H489        H  0.23488122  0.29009721  0.40306622     0.16900
H490        H  0.21104403  0.25500161  0.32097668     0.02600
H491        H  0.23414568  0.35065897  0.33968814     0.17200
H492        H  0.15458993  0.31790979  0.36904912     0.16900
C493        C  0.22893835  0.13217011  0.20101916     0.88700
C494        C  0.24411564  0.16169483  0.18865120    -0.51500
C495        C  0.24417914  0.18637331  0.20672481     0.11700
C496        C  0.22934737  0.17900326  0.23487493     0.22600
C497        C  0.24646109  0.12602189  0.22822693    -0.52200
C498        C  0.24672832  0.15068669  0.24594827     0.11800
C499        C  0.19701724  0.14254479  0.21001509    -0.51800
C500        C  0.19722214  0.16682974  0.22743324     0.12300
H501        H  0.25321735  0.16305528  0.16776095     0.16900
H502        H  0.22904571  0.19888366  0.24942287     0.02600
H503        H  0.25717233  0.10410594  0.23316570     0.17200
H504        H  0.17578507  0.13188472  0.20279899     0.16900
C505        C  0.87377133  0.54531892  0.64859365     0.82500
N506        N  0.88789999  0.51954752  0.65901776    -0.75800
C507        C  0.90941435  0.50436262  0.64342629     0.84900
N508        N  0.91661794  0.51511492  0.61787567    -0.75800
C509        C  0.90278700  0.54056307  0.60756427     0.85000
N510        N  0.88146749  0.55564225  0.62291321    -0.77500
C511        C  0.96031450  0.61593488  0.44494364     0.82500
N512        N  0.94748452  0.60818514  0.46961662    -0.75800
C513        C  0.95795433  0.58356730  0.48405260     0.84900
N514        N  0.98137918  0.56648502  0.47379231    -0.75800
C515        C  0.99447505  0.57382738  0.44912285     0.85000
N516        N  0.98388341  0.59864305  0.43452501    -0.77500
C517        C  0.13343481  0.42458273  0.44398289     0.82500
N518        N  0.11827553  0.44947141  0.43325392    -0.75800
C519        C  0.09653447  0.46420185  0.44878053     0.84900
N520        N  0.09002043  0.45384227  0.47461735    -0.75800
C521        C  0.10492983  0.42916266  0.48523551     0.85000
N522        N  0.12653041  0.41450514  0.46990188    -0.77500
C523        C  0.04418220  0.35018763  0.64534250     0.82500
N524        N  0.05789194  0.35871140  0.62127519    -0.75800
C525        C  0.04789702  0.38370024  0.60710229     0.84900
N526        N  0.02402225  0.40043174  0.61700464    -0.75800
C527        C  0.00996618  0.39238342  0.64107299     0.85000
N528        N  0.02013727  0.36715183  0.65544061    -0.77500
C529        C  0.09664414  0.41793361  0.51223976    -0.16300
C530        C  0.08747020  0.40938954  0.53455169     0.07800
C531        C  0.07471844  0.40012188  0.56018223     0.09700
C532        C  0.06274750  0.39256171  0.58169755    -0.17100
C533        C  0.07935384  0.49039943  0.43844934    -0.16300
C534        C  0.06199901  0.51191563  0.43476798     0.07800
C535        C  0.03963146  0.53593008  0.43509255     0.09700
C536        C  0.01945172  0.55472549  0.43910985    -0.17100
C537        C  0.91155838  0.55177211  0.58065107    -0.16300
C538        C  0.92073964  0.55993551  0.55821284     0.07800
C539        C  0.93297636  0.56856457  0.53218315     0.09700
C540        C  0.94416979  0.57551575  0.51016095    -0.17100
C541        C  0.92568400  0.47714188  0.65319022    -0.16300
C542        C  0.94260469  0.45500543  0.65602250     0.07800
C543        C  0.96463274  0.43050232  0.65498990     0.09700
C544        C  0.98468713  0.41147668  0.65084639    -0.17100
C545        C  0.15587558  0.40757932  0.42790886    -0.16300
C546        C  0.17364581  0.39030631  0.41632129     0.07800
C547        C  0.19197655  0.36746209  0.40303666     0.09700
C548        C  0.20330600  0.34627499  0.39019118    -0.17100
C549        C  0.14659528  0.19369765  0.24413365    -0.11000
C550        C  0.16918623  0.18062362  0.23635558    -0.12600
C551        C  0.15023025  0.27253219  0.33119433    -0.11000
C552        C  0.13022333  0.26272417  0.31655140    -0.12600
C553        C  0.04228591  0.27047906  0.22074236    -0.11000
C554        C  0.06143442  0.26368846  0.23762384    -0.12600
C555        C  0.84812104  0.14126975  0.12695259    -0.11000
C556        C  0.86936964  0.15185451  0.11406889    -0.12600
C557        C  0.80461853  0.85800947  0.26470549    -0.11000
C558        C  0.81286245  0.83610963  0.25166286    -0.12600
C559        C  0.74363151  0.86334489  0.34432319    -0.11000
C560        C  0.73044719  0.84222152  0.35513895    -0.12600
C561        C  0.76272409  0.95637862  0.29108056    -0.11000
C562        C  0.76050269  0.98260126  0.28329380    -0.12600
C563        C  0.25571239  0.21362613  0.36889025    -0.11000
C564        C  0.24190664  0.23802612  0.36875422    -0.12600
C565        C  0.27192744  0.15060616  0.29639003    -0.11000
C566        C  0.26095387  0.15002333  0.27325701    -0.12600
C567        C  0.26405255  0.24445150  0.20143195    -0.11000
C568        C  0.25559762  0.21756008  0.20076724    -0.12600
C569        C  0.25319698  0.30777308  0.27623256    -0.11000
C570        C  0.24064578  0.30640489  0.29866137    -0.12600
C571        C  0.74159931  0.23084740  0.31123829    -0.11000
C572        C  0.72802985  0.25282986  0.32018444    -0.12600
C573        C  0.36876507  0.27655977  0.25929876    -0.11000
C574        C  0.34726280  0.28437609  0.24565414    -0.12600
C575        C  0.35316442  0.19524532  0.34423973    -0.11000
C576        C  0.37376159  0.21175265  0.33680497    -0.12600
C577        C  0.46287062  0.27492654  0.31207037    -0.11000
C578        C  0.48868700  0.28499520  0.31141517    -0.12600
C579        C  0.89098457  0.69723487  0.39588410    -0.16300
C580        C  0.91184950  0.68408823  0.40765588     0.07800
C581        C  0.93286729  0.66261868  0.41948309     0.09700
C582        C  0.94756349  0.64186230  0.42990299    -0.17100
C583        C  0.78079362  0.73296137  0.38049986    -0.11000
C584        C  0.75605064  0.74596777  0.38243829    -0.12600
C585        C  0.84482084  0.73455120  0.30627716    -0.11000
C586        C  0.84299944  0.74517956  0.28307047    -0.12600
C587        C  0.74203338  0.73997174  0.21694407    -0.11000
C588        C  0.76842733  0.74956565  0.21552287    -0.12600
C589        C  0.68173249  0.74537613  0.29272793    -0.11000
C590        C  0.68518728  0.75741531  0.31517405    -0.12600
C591        C  0.91740242  0.37386967  0.05125692    -0.11000
C592        C  0.89820080  0.39365245  0.05303600    -0.12600
C593        C  0.67655703  0.40282893  0.15529483    -0.11000
C594        C  0.66185641  0.39169374  0.17398410    -0.12600
C595        C  0.81267029  0.62492547  0.31926821    -0.11000
C596        C  0.81979590  0.64430723  0.33575171    -0.12600
C597        C  0.72999755  0.63211218  0.25883698    -0.11000
C598        C  0.71263665  0.65285577  0.25443102    -0.12600
C599        C  0.81739706  0.57343679  0.23016863    -0.11000
C600        C  0.82344001  0.55989014  0.20912872    -0.12600
C601        C  0.63980814  0.78257176  0.74678135    -0.11000
C602        C  0.66286329  0.79429230  0.73820111    -0.12600
C603        C  0.64291815  0.70715247  0.83649073    -0.11000
C604        C  0.62261286  0.71766521  0.82263268    -0.12600
C605        C  0.51659677  0.72888519  0.74367816    -0.11000
C606        C  0.54058413  0.73311057  0.75555213    -0.12600
C607        C  0.11472671  0.26927752  0.69341150    -0.16300
C608        C  0.09343323  0.28191685  0.68172600     0.07800
C609        C  0.07184446  0.30316244  0.67024059     0.09700
C610        C  0.05679175  0.32394310  0.66017403    -0.17100
C611        C  0.37034988  0.61366274  0.56323739    -0.11000
C612        C  0.38608446  0.63524216  0.57005375    -0.12600
C613        C  0.21758383  0.34697148  0.73612942    -0.11000
C614        C  0.20039712  0.32570578  0.73293782    -0.12600
C615        C  0.29080510  0.36888523  0.80486766    -0.11000
C616        C  0.29717807  0.35186790  0.82356250    -0.12600
C617        C  0.27756244  0.46287587  0.71303954    -0.11000
C618        C  0.27633607  0.44099346  0.72831167    -0.12600
C619        C  0.74297669  0.77091365  0.87617467    -0.11000
C620        C  0.73114774  0.74537987  0.87498313    -0.12600
C621        C  0.75715072  0.83360246  0.80406792    -0.11000
C622        C  0.74792317  0.83196540  0.78047227    -0.12600
C623        C  0.80023034  0.62464247  0.69890616    -0.16300
C624        C  0.81330504  0.60339621  0.68727923     0.07800
C625        C  0.83288802  0.58038683  0.67525649     0.09700
C626        C  0.85114769  0.56276871  0.66445307    -0.17100
C627        C  0.76706014  0.73685776  0.71205356    -0.11000
C628        C  0.75655882  0.76287830  0.71008600    -0.12600
C629        C  0.74855516  0.67089852  0.78348167    -0.11000
C630        C  0.73498679  0.67314756  0.80543686    -0.12600
C631        C  0.14595253  0.64895868  0.62288729    -0.11000
C632        C  0.12788471  0.66907999  0.62831043    -0.12600
C633        C  0.84448512  0.69549052  0.76575537    -0.11000
C634        C  0.86405889  0.70522783  0.78083896    -0.12600
C635        C  0.86183301  0.78350415  0.84676662    -0.11000
C636        C  0.83965319  0.79799410  0.85341863    -0.12600
C637        C  0.95662219  0.76074229  0.79924330    -0.11000
C638        C  0.97841881  0.76697239  0.78500025    -0.12600
C639        C  0.22305762  0.26592063  0.88159437    -0.11000
C640        C  0.24881204  0.27677877  0.87863655    -0.12600
C641        C  0.15720069  0.24333547  0.81231478    -0.11000
C642        C  0.15711602  0.25009270  0.78799767    -0.12600
C643        C  0.24915381  0.21967536  0.71968243    -0.11000
C644        C  0.22305344  0.22968865  0.71752961    -0.12600
C645        C  0.31872096  0.25501137  0.80993202    -0.11000
C646        C  0.31896655  0.23987672  0.78871134    -0.12600
C647        C  0.27539308  0.84372470  0.68581244    -0.11000
C648        C  0.29565363  0.82503820  0.68397814    -0.12600
C649        C  0.04728928  0.90229949  0.61308081    -0.11000
C650        C  0.06463869  0.92376511  0.61576518    -0.12600
C651        C  0.28038433  0.12385118  0.78537192    -0.11000
C652        C  0.29216540  0.14258931  0.77054682    -0.12600
C653        C  0.20027069  0.16743421  0.86398083    -0.11000
C654        C  0.21223126  0.14400151  0.85678140    -0.12600
C655        C  0.18364276  0.03347209  0.79020678    -0.11000
C656        C  0.19779075  0.05340029  0.80193268    -0.12600
C657        C  0.36054768  0.18898179  0.70248949    -0.16300
C658        C  0.38156540  0.17657522  0.69020848     0.07800
C659        C  0.40463281  0.15756560  0.67791551     0.09700
C660        C  0.42263674  0.13972924  0.66725045    -0.17100
C661        C  0.42444709  0.05966858  0.50796199    -0.16300
C662        C  0.43080451  0.06963560  0.53061018     0.07800
C663        C  0.43807258  0.07947442  0.55778578     0.09700
C664        C  0.44416405  0.08622231  0.58142464    -0.17100
C665        C  0.35917052  0.05543661  0.42684118    -0.16300
C666        C  0.33845005  0.06910810  0.41534654     0.07800
C667        C  0.31673045  0.08862558  0.40193207     0.09700
C668        C  0.30311952  0.10840679  0.38907755    -0.17100
C669        C  0.65083829  0.79057552  0.40875053    -0.16300
C670        C  0.62897667  0.80255162  0.42003967     0.07800
C671        C  0.60477345  0.82135709  0.43048604     0.09700
C672        C  0.58585773  0.83914716  0.43971796    -0.17100
C673        C  0.50399507  0.91775492  0.44180775    -0.16300
C674        C  0.48425021  0.93661814  0.43656741     0.07800
C675        C  0.46185146  0.96055767  0.43561537     0.09700
C676        C  0.44416719  0.98190004  0.43875491    -0.17100
C677        C  0.58112622  0.92234720  0.59586636    -0.16300
C678        C  0.57338925  0.91103909  0.57419432     0.07800
C679        C  0.56575777  0.89977698  0.54771221     0.09700
C680        C  0.56009265  0.89229100  0.52426274    -0.17100
C681        C  0.71865911  0.87284237  0.68799942    -0.16300
C682        C  0.70479110  0.89491519  0.67887632     0.07800
C683        C  0.68184542  0.91705185  0.67184617     0.09700
C684        C  0.65926057  0.93195347  0.66559007    -0.17100
C685        C  0.56927630  0.00190348  0.66450636    -0.16300
C686        C  0.55060532  0.02240945  0.66783381     0.07800
C687        C  0.52667139  0.04491460  0.66674138     0.09700
C688        C  0.50570594  0.06254144  0.66165164    -0.17100
C689        C  0.36047178  0.30687905  0.89536017    -0.16300
C690        C  0.38175434  0.31973463  0.90691454     0.07800
C691        C  0.40469448  0.33974734  0.91811110     0.09700
C692        C  0.42185992  0.35879753  0.92826408    -0.17100
C693        C  0.40735185  0.43980236  0.08581568    -0.16300
C694        C  0.41351760  0.43290945  0.06233192     0.07800
C695        C  0.42177964  0.42518017  0.03500805     0.09700
C696        C  0.42996480  0.41886059  0.01189689    -0.17100
C697        C  0.29311451  0.35908127  0.19038928    -0.16300
C698        C  0.30595932  0.38233749  0.18215405     0.07800
C699        C  0.32670922  0.40681178  0.17513061     0.09700
C700        C  0.34666731  0.42489769  0.16797190    -0.17100
C701        C  0.65107652  0.57382950  0.93663688    -0.16300
C702        C  0.66804320  0.59172519  0.92470340     0.07800
C703        C  0.68562025  0.61489376  0.91090580     0.09700
C704        C  0.69647464  0.63599636  0.89753532    -0.17100
C705        C  0.57103111  0.49390313  0.94548792    -0.16300
C706        C  0.55156294  0.47468649  0.93995723     0.07800
C707        C  0.52680502  0.45310477  0.93778730     0.09700
C708        C  0.50456158  0.43624549  0.94006724    -0.17100
C709        C  0.60092951  0.55513225  0.02447706    -0.16300
C710        C  0.59448556  0.56254093  0.04786222     0.07800
C711        C  0.58453324  0.57141492  0.07458571     0.09700
C712        C  0.57433055  0.57902856  0.09680322    -0.17100
C713        C  0.57160791  0.64794570  0.17544345    -0.16300
C714        C  0.58686872  0.66891659  0.18517793     0.07800
C715        C  0.60848901  0.69080569  0.19596664     0.09700
C716        C  0.62988462  0.70456391  0.20664130    -0.17100
C717        C  0.49598841  0.56277510  0.16622468    -0.16300
C718        C  0.47453181  0.54501817  0.16971782     0.07800
C719        C  0.45037348  0.52241958  0.16954515     0.09700
C720        C  0.43122857  0.50237338  0.16525370    -0.17100
C721        C  0.11611030  0.22154668  0.90701021    -0.16300
C722        C  0.09530962  0.20718473  0.91803532     0.07800
C723        C  0.07460561  0.18403931  0.92823004     0.09700
C724        C  0.06029037  0.16180952  0.93686270    -0.17100
C725        C  0.10370249  0.04582735  0.07232820    -0.16300
C726        C  0.09416439  0.05823513  0.05170483     0.07800
C727        C  0.08147574  0.07241022  0.02798543     0.09700
C728        C  0.06940486  0.08375193  0.00795183    -0.17100
C729        C  0.17187679  0.04362646  0.15104759    -0.16300
C730        C  0.19191944  0.06001899  0.16082375     0.07800
C731        C  0.21244189  0.08287489  0.17172545     0.09700
C732        C  0.22493585  0.10473324  0.18294670    -0.17100
C733        C  0.78240054  0.88058404  0.89626992    -0.16300
C734        C  0.79595669  0.90153244  0.90780926     0.07800
C735        C  0.81865191  0.92183678  0.91912948     0.09700
C736        C  0.84070672  0.93539940  0.92880223    -0.17100
C737        C  0.92753011  0.00846591  0.93920597    -0.16300
C738        C  0.94482439  0.03044449  0.93662931     0.07800
C739        C  0.96722618  0.05473084  0.93732637     0.09700
C740        C  0.98775718  0.07341119  0.94125783    -0.17100
C741        C  0.94724772  0.88928557  0.06921857    -0.16300
C742        C  0.93720409  0.89767005  0.04717875     0.07800
C743        C  0.92571423  0.90968073  0.02200717     0.09700
C744        C  0.91623780  0.92188682  0.00124029    -0.17100
C745        C  0.93997606  0.82889991  0.15304048    -0.16300
C746        C  0.92279456  0.81030062  0.16393190     0.07800
C747        C  0.89987392  0.79107327  0.17637569     0.09700
C748        C  0.87870336  0.77940872  0.18913434    -0.17100
C749        C  0.02163521  0.90775094  0.14156236    -0.16300
C750        C  0.04333965  0.92514675  0.14519794     0.07800
C751        C  0.06771672  0.94748669  0.14532928     0.09700
C752        C  0.08674674  0.96782797  0.14184362    -0.17100
loop_ 
_geom_bond_atom_site_label_1 
_geom_bond_atom_site_label_2 
_geom_bond_distance 
_geom_bond_site_symmetry_2 
_ccdc_geom_bond_type 
C1            N2   1.358       .  A
C1            N6   1.370       .  A
C1          C745   1.453       .  S
N2            C3   1.355       .  A
C3            N4   1.355       .  A
C3          C741   1.438       .  S
N4            C5   1.357       .  A
C5            N6   1.370       .  A
C5          C749   1.456   1_655  S
C7            N8   1.370       .  A
C7           N12   1.358       .  A
C7          C736   1.453       .  S
N8            C9   1.369       .  A
C9           N10   1.357       .  A
C9          C737   1.455   1_565  S
N10          C11   1.355       .  A
C11          N12   1.356       .  A
C11         C744   1.439   1_556  S
C13          N14   1.357       .  A
C13          N18   1.372       .  A
C13         C729   1.455       .  S
N14          C15   1.354       .  A
C15          N16   1.354       .  A
C15         C725   1.437       .  S
N16          C17   1.357   1_545  A
C17          N18   1.371   1_565  A
C17         C752   1.456       .  S
C19          N20   1.371       .  A
C19          N24   1.359       .  A
C19         C724   1.457       .  S
N20          C21   1.370       .  A
C21          N22   1.356       .  A
C21         C740   1.455   1_455  S
N22          C23   1.354       .  A
C23          N24   1.356       .  A
C23         C728   1.437   1_556  S
C25          N26   1.358       .  A
C25          N30   1.371       .  A
C25         C713   1.455       .  S
N26          C27   1.355       .  A
C27          N28   1.355       .  A
C27         C712   1.439       .  S
N28          C29   1.358       .  A
C29          N30   1.370       .  A
C29         C717   1.457       .  S
C31          N32   1.367       .  A
C31          N36   1.359       .  A
C31         C701   1.450       .  S
N32          C33   1.366       .  A
C33          N34   1.357       .  A
C33         C705   1.451       .  S
N34          C35   1.356       .  A
C35          N36   1.356       .  A
C35         C709   1.439   1_556  S
C37          N38   1.355       .  A
C37          N42   1.373       .  A
C37         C700   1.454       .  S
N38          C39   1.352       .  A
C39          N40   1.353       .  A
C39         C693   1.432       .  S
N40          C41   1.356       .  A
C41          N42   1.372       .  A
C41         C720   1.456       .  S
C43          N44   1.370       .  A
C43          N48   1.357       .  A
C43         C692   1.449       .  S
N44          C45   1.369       .  A
C45          N46   1.356       .  A
C45         C708   1.450       .  S
N46          C47   1.353       .  A
C47          N48   1.353       .  A
C47         C696   1.432   1_556  S
C49          N50   1.355       .  A
C49          N54   1.371       .  A
C49         C684   1.451       .  S
N50          C51   1.352       .  A
C51          N52   1.353       .  A
C51         C677   1.432       .  S
N52          C53   1.357       .  A
C53          N54   1.371       .  A
C53         C685   1.453   1_565  S
C55          N56   1.369       .  A
C55          N60   1.357       .  A
C55         C672   1.449       .  S
N56          C57   1.368       .  A
C57          N58   1.355       .  A
C57         C673   1.449       .  S
N58          C59   1.353       .  A
C59          N60   1.354       .  A
C59         C680   1.432       .  S
C61          N62   1.359       .  A
C61          N66   1.367       .  A
C61         C665   1.450       .  S
N62          C63   1.356       .  A
C63          N64   1.355       .  A
C63         C661   1.440       .  S
N64          C65   1.357       .  A
C65          N66   1.366       .  A
C65         C676   1.450   1_545  S
C67          N68   1.369       .  A
C67          N72   1.359       .  A
C67         C660   1.454       .  S
N68          C69   1.368       .  A
C69          N70   1.357       .  A
C69         C688   1.453       .  S
N70          C71   1.355       .  A
C71          N72   1.356       .  A
C71         C664   1.439       .  S
C73          N74   1.356       .  A
C73          N78   1.357       .  A
C73         C656   1.427       .  S
N74          C75   1.355       .  A
C75          N76   1.347       .  A
C75         C654   1.414       .  S
N76          C77   1.347       .  A
C77          N78   1.354       .  A
C77         C651   1.417       .  S
N79          C83   1.342       .  A
N79          N80   1.321       .  A
N79         Cu87   2.050       .  S
N80          C81   1.345       .  A
N80         Cu86   2.069       .  S
C81          C82   1.380       .  A
C81          H84   1.082       .  S
C82         C647   1.431       .  S
C82          C83   1.376       .  A
C83          H85   1.082       .  S
Cu86         N89   2.067       .  S
Cu87         N97   2.049       .  S
Cu88         N90   2.079       .  S
Cu88         N96   2.078       .  S
N89          C93   1.341       .  A
N89          N90   1.322       .  A
N90          C91   1.347       .  A
C91          C92   1.384       .  A
C91          H94   1.083       .  S
C92         C650   1.432       .  S
C92          C93   1.379       .  A
C93          H95   1.083       .  S
N96         C100   1.347   1_565  A
N96          N97   1.322       .  A
N97          C98   1.339       .  A
C98          C99   1.373   1_565  A
C98         H101   1.083       .  S
C99         C655   1.428       .  S
C99         C100   1.383       .  A
C100        H102   1.082       .  S
C103        C104   1.551       .  S
C103        C109   1.525       .  S
C103        C107   1.546       .  S
C103        C657   1.484       .  S
C104        H111   1.086       .  S
C104        C105   1.376       .  D
C105        C106   1.543       .  S
C105        C643   1.467       .  S
C106        C110   1.536       .  S
C106        C108   1.540       .  S
C106        H112   1.112       .  S
C107        H113   1.086       .  S
C107        C108   1.372       .  D
C108        C646   1.460       .  S
C109        H114   1.088       .  S
C109        C110   1.350       .  D
C110        C652   1.428       .  S
C115        C116   1.561       .  S
C115        C121   1.523       .  S
C115        C119   1.540       .  S
C115        C721   1.485       .  S
C116        H123   1.085       .  S
C116        C117   1.386       .  D
C117        C118   1.533       .  S
C117        C639   1.466       .  S
C118        C122   1.532       .  S
C118        C120   1.536       .  S
C118        H124   1.112       .  S
C119        H125   1.086       .  S
C119        C120   1.366       .  D
C120        C641   1.450       .  S
C121        H126   1.089       .  S
C121        C122   1.346       .  D
C122        C653   1.424       .  S
C127        N128   1.360       .  A
C127        N132   1.357       .  A
C127        C637   1.427       .  S
N128        C129   1.358       .  A
C129        N130   1.346       .  A
C129        C635   1.417       .  S
N130        C131   1.344       .  A
C131        N132   1.352       .  A
C131        C634   1.417       .  S
N133        C137   1.342       .  A
N133        N134   1.321       .  A
N133       Cu141   2.061       .  S
N134        C135   1.345       .  A
N134       Cu140   2.077       .  S
C135        C136   1.384       .  A
C135        H138   1.082       .  S
C136        C649   1.432       .  S
C136        C137   1.380       .  A
C137        H139   1.082       .  S
Cu140       N143   2.078       .  S
Cu141       N151   2.062       .  S
Cu142       N144   2.067       .  S
Cu142       N150   2.066       .  S
N143        C147   1.346       .  A
N143        N144   1.324       .  A
N144        C145   1.344       .  A
C145        C146   1.377       .  A
C145        H148   1.083       .  S
C146        C632   1.435       .  S
C146        C147   1.380       .  A
C147        H149   1.082       .  S
N150        C154   1.344       .  A
N150        N151   1.321       .  A
N151        C152   1.342   1_455  A
C152        C153   1.379       .  A
C152        H155   1.083       .  S
C153        C638   1.430       .  S
C153        C154   1.380   1_655  A
C154        H156   1.082       .  S
C157        C158   1.551       .  S
C157        C163   1.524       .  S
C157        C161   1.554       .  S
C157        C623   1.491       .  S
C158        H165   1.086       .  S
C158        C159   1.375       .  D
C159        C160   1.536       .  S
C159        C629   1.461       .  S
C160        C164   1.535       .  S
C160        C162   1.541       .  S
C160        H166   1.112       .  S
C161        H167   1.086       .  S
C161        C162   1.378       .  D
C162        C627   1.469       .  S
C163        H168   1.088       .  S
C163        C164   1.349       .  D
C164        C633   1.427       .  S
C169        C170   1.541       .  S
C169        C175   1.524       .  S
C169        C173   1.557       .  S
C169        C733   1.482       .  S
C170        H177   1.086       .  S
C170        C171   1.368       .  D
C171        C172   1.536       .  S
C171        C621   1.449       .  S
C172        C176   1.535       .  S
C172        C174   1.535       .  S
C172        H178   1.112       .  S
C173        H179   1.085       .  S
C173        C174   1.381       .  D
C174        C619   1.464       .  S
C175        H180   1.088       .  S
C175        C176   1.346       .  D
C176        C636   1.428       .  S
C181        N182   1.359       .  A
C181        N186   1.364       .  A
C181        C618   1.430       .  S
N182        C183   1.352       .  A
C183        N184   1.341       .  A
C183        C613   1.414       .  S
N184        C185   1.344       .  A
C185        N186   1.360       .  A
C185        C615   1.419       .  S
N187        C191   1.344       .  A
N187        N188   1.322       .  A
N187       Cu195   2.068       .  S
N188        C189   1.346       .  A
N188       Cu194   2.072       .  S
C189        C190   1.380       .  A
C189        H192   1.082       .  S
C190        C631   1.435       .  S
C190        C191   1.379       .  A
C191        H193   1.082       .  S
Cu194       N197   2.072       .  S
Cu195       N205   2.068       .  S
Cu196       N198   2.065       .  S
Cu196       N204   2.066       .  S
N197        C201   1.343       .  A
N197        N198   1.321       .  A
N198        C199   1.343       .  A
C199        C200   1.381       .  A
C199        H202   1.082       .  S
C200        C611   1.432       .  S
C200        C201   1.382       .  A
C201        H203   1.082       .  S
N204        C208   1.345       .  A
N204        N205   1.323       .  A
N205        C206   1.343       .  A
C206        C207   1.378       .  A
C206        H209   1.083       .  S
C207        C617   1.432       .  S
C207        C208   1.378       .  A
C208        H210   1.082       .  S
C211        C212   1.560       .  S
C211        C217   1.525       .  S
C211        C215   1.539       .  S
C211        C607   1.482       .  S
C212        H219   1.085       .  S
C212        C213   1.383       .  D
C213        C214   1.534       .  S
C213        C644   1.466       .  S
C214        C218   1.532       .  S
C214        C216   1.537       .  S
C214        H220   1.112       .  S
C215        H221   1.086       .  S
C215        C216   1.365       .  D
C216        C642   1.450       .  S
C217        H222   1.088       .  S
C217        C218   1.348       .  D
C218        C614   1.424       .  S
C223        C224   1.548       .  S
C223        C229   1.525       .  S
C223        C227   1.545       .  S
C223        C689   1.480       .  S
C224        H231   1.086       .  S
C224        C225   1.375       .  D
C225        C226   1.547       .  S
C225        C640   1.469       .  S
C226        C230   1.541       .  S
C226        C228   1.542       .  S
C226        H232   1.112       .  S
C227        H233   1.086       .  S
C227        C228   1.371       .  D
C228        C645   1.461       .  S
C229        H234   1.088       .  S
C229        C230   1.349       .  D
C230        C616   1.432       .  S
C235        N236   1.360       .  A
C235        N240   1.363       .  A
C235        C606   1.432       .  S
N236        C237   1.354       .  A
C237        N238   1.342       .  A
C237        C601   1.417       .  S
N238        C239   1.344       .  A
C239        N240   1.359       .  A
C239        C604   1.420       .  S
N241        C245   1.345       .  A
N241        N242   1.322       .  A
N241       Cu249   2.069       .  S
N242        C243   1.342       .  A
N242       Cu248   2.061       .  S
C243        C244   1.376       .  A
C243        H246   1.082       .  S
C244        C648   1.431       .  S
C244        C245   1.380       .  A
C245        H247   1.082       .  S
Cu248       N251   2.061       .  S
Cu249       N259   2.069       .  S
Cu250       N252   2.073       .  S
Cu250       N258   2.074       .  S
N251        C255   1.341       .  A
N251        N252   1.321       .  A
N252        C253   1.347       .  A
C253        C254   1.383       .  A
C253        H256   1.082       .  S
C254        C612   1.433       .  S
C254        C255   1.379       .  A
C255        H257   1.083       .  S
N258        C262   1.345       .  A
N258        N259   1.324       .  A
N259        C260   1.344       .  A
C260        C261   1.378       .  A
C260        H263   1.083       .  S
C261        C605   1.434       .  S
C261        C262   1.379       .  A
C262        H264   1.083       .  S
C265        C266   1.541       .  S
C265        C271   1.525       .  S
C265        C269   1.549       .  S
C265        C704   1.479       .  S
C266        H273   1.086       .  S
C266        C267   1.368       .  D
C267        C268   1.546       .  S
C267        C630   1.462       .  S
C268        C272   1.541       .  S
C268        C270   1.545       .  S
C268        H274   1.112       .  S
C269        H275   1.086       .  S
C269        C270   1.375       .  D
C270        C620   1.466       .  S
C271        H276   1.088       .  S
C271        C272   1.350       .  D
C272        C603   1.433       .  S
C277        C278   1.537       .  S
C277        C283   1.524       .  S
C277        C281   1.558       .  S
C277        C681   1.480       .  S
C278        H285   1.087       .  S
C278        C279   1.364       .  D
C279        C280   1.539       .  S
C279        C622   1.449       .  S
C280        C284   1.535       .  S
C280        C282   1.539       .  S
C280        H286   1.112       .  S
C281        H287   1.085       .  S
C281        C282   1.384       .  D
C282        C628   1.468       .  S
C283        H288   1.089       .  S
C283        C284   1.347       .  D
C284        C602   1.426       .  S
C289        N290   1.358       .  A
C289        N294   1.361       .  A
C289        C599   1.432       .  S
N290        C291   1.353       .  A
C291        N292   1.343       .  A
C291        C597   1.416       .  S
N292        C293   1.346       .  A
C293        N294   1.360       .  A
C293        C595   1.417       .  S
N295        C299   1.342       .  A
N295        N296   1.320       .  A
N295       Cu303   2.056       .  S
N296        C297   1.348       .  A
N296       Cu302   2.078       .  S
C297        C298   1.385       .  A
C297        H300   1.082       .  S
C298        C593   1.437       .  S
C298        C299   1.378       .  A
C299        H301   1.082       .  S
Cu302       N305   2.079       .  S
Cu303       N313   2.056       .  S
Cu304       N306   2.073       .  S
Cu304       N312   2.071       .  S
N305        C309   1.344       .  A
N305        N306   1.325       .  A
N306        C307   1.344       .  A
C307        C308   1.379       .  A
C307        H310   1.082       .  S
C308        C592   1.432       .  S
C308        C309   1.380       .  A
C309        H311   1.082       .  S
N312        C316   1.349       .  A
N312        N313   1.321       .  A
N313        C314   1.338       .  A
C314        C315   1.374       .  A
C314        H317   1.082       .  S
C315        C600   1.432       .  S
C315        C316   1.383       .  A
C316        H318   1.082       .  S
C319        C320   1.544       .  S
C319        C325   1.524       .  S
C319        C323   1.558       .  S
C319        C716   1.485       .  S
C320        H327   1.086       .  S
C320        C321   1.371       .  D
C321        C322   1.536       .  S
C321        C589   1.453       .  S
C322        C326   1.533       .  S
C322        C324   1.535       .  S
C322        H328   1.112       .  S
C323        H329   1.085       .  S
C323        C324   1.380       .  D
C324        C587   1.466       .  S
C325        H330   1.088       .  S
C325        C326   1.347       .  D
C326        C598   1.425       .  S
C331        C332   1.546       .  S
C331        C337   1.524       .  S
C331        C335   1.549       .  S
C331        C579   1.480       .  S
C332        H339   1.086       .  S
C332        C333   1.371       .  D
C333        C334   1.537       .  S
C333        C585   1.456       .  S
C334        C338   1.538       .  S
C334        C336   1.543       .  S
C334        H340   1.112       .  S
C335        H341   1.086       .  S
C335        C336   1.376       .  D
C336        C583   1.466       .  S
C337        H342   1.088       .  S
C337        C338   1.348       .  D
C338        C596   1.429       .  S
C343        N344   1.364       .  A
C343        N348   1.359       .  A
C343        C577   1.431       .  S
N344        C345   1.360       .  A
C345        N346   1.343       .  A
C345        C576   1.420       .  S
N346        C347   1.341       .  A
C347        N348   1.353       .  A
C347        C573   1.413       .  S
N349        C353   1.350       .  A
N349        N350   1.323       .  A
N349       Cu357   2.083       .  S
N350        C351   1.340       .  A
N350       Cu356   2.058       .  S
C351        C352   1.375       .  A
C351        H354   1.082       .  S
C352        C594   1.437       .  S
C352        C353   1.384       .  A
C353        H355   1.082       .  S
Cu356       N359   2.056       .  S
Cu357       N367   2.084       .  S
Cu358       N360   2.063       .  S
Cu358       N366   2.064       .  S
N359        C363   1.342       .  A
N359        N360   1.319       .  A
N360        C361   1.344       .  A
C361        C362   1.382       .  A
C361        H364   1.082       .  S
C362        C572   1.432       .  S
C362        C363   1.380       .  A
C363        H365   1.082       .  S
N366        C370   1.345       .  A
N366        N367   1.325       .  A
N367        C368   1.344       .  A
C368        C369   1.380       .  A
C368        H371   1.082       .  S
C369        C578   1.433       .  S
C369        C370   1.376       .  A
C370        H372   1.082       .  S
C373        C374   1.557       .  S
C373        C379   1.522       .  S
C373        C377   1.542       .  S
C373        C697   1.483       .  S
C374        H381   1.085       .  S
C374        C375   1.382       .  D
C375        C376   1.538       .  S
C375        C567   1.467       .  S
C376        C380   1.534       .  S
C376        C378   1.539       .  S
C376        H382   1.112       .  S
C377        H383   1.086       .  S
C377        C378   1.368       .  D
C378        C569   1.456       .  S
C379        H384   1.089       .  S
C379        C380   1.346       .  D
C380        C574   1.423       .  S
C385        C386   1.552       .  S
C385        C391   1.525       .  S
C385        C389   1.541       .  S
C385        C668   1.480       .  S
C386        H393   1.086       .  S
C386        C387   1.378       .  D
C387        C388   1.538       .  S
C387        C563   1.462       .  S
C388        C392   1.540       .  S
C388        C390   1.542       .  S
C388        H394   1.112       .  S
C389        H395   1.086       .  S
C389        C390   1.369       .  D
C390        C565   1.458       .  S
C391        H396   1.088       .  S
C391        C392   1.348       .  D
C392        C575   1.432       .  S
C397        N398   1.358       .  A
C397        N402   1.361       .  A
C397        C561   1.428       .  S
N398        C399   1.353       .  A
C399        N400   1.343       .  A
C399        C557   1.416       .  S
N400        C401   1.345       .  A
C401        N402   1.358       .  A
C401        C559   1.419       .  S
N403        C407   1.347       .  A
N403        N404   1.322       .  A
N403       Cu411   2.070       .  S
N404        C405   1.342       .  A
N404       Cu410   2.068       .  S
C405        C406   1.378       .  A
C405        H408   1.082       .  S
C406        C555   1.434       .  S
C406        C407   1.381       .  A
C407        H409   1.082       .  S
Cu410       N413   2.069       .  S
Cu411       N421   2.071       .  S
Cu412       N414   2.062       .  S
Cu412       N420   2.062       .  S
N413        C417   1.344       .  A
N413        N414   1.322       .  A
N414        C415   1.344       .  A
C415        C416   1.378       .  A
C415        H418   1.082       .  S
C416        C571   1.433       .  S
C416        C417   1.380       .  A
C417        H419   1.082       .  S
N420        C424   1.344       .  A
N420        N421   1.324       .  A
N421        C422   1.343       .  A
C422        C423   1.378       .  A
C422        H425   1.082       .  S
C423        C562   1.430   1_545  S
C423        C424   1.376       .  A
C424        H426   1.082       .  S
C427        C428   1.537       .  S
C427        C433   1.525       .  S
C427        C431   1.555       .  S
C427        C669   1.479       .  S
C428        H435   1.087       .  S
C428        C429   1.363       .  D
C429        C430   1.541       .  S
C429        C590   1.453       .  S
C430        C434   1.539       .  S
C430        C432   1.539       .  S
C430        H436   1.112       .  S
C431        H437   1.085       .  S
C431        C432   1.381       .  D
C432        C584   1.465       .  S
C433        H438   1.088       .  S
C433        C434   1.350       .  D
C434        C560   1.431       .  S
C439        C440   1.543       .  S
C439        C445   1.524       .  S
C439        C443   1.553       .  S
C439        C748   1.482       .  S
C440        H447   1.086       .  S
C440        C441   1.369       .  D
C441        C442   1.540       .  S
C441        C586   1.456       .  S
C442        C446   1.535       .  S
C442        C444   1.542       .  S
C442        H448   1.112       .  S
C443        H449   1.085       .  S
C443        C444   1.379       .  D
C444        C588   1.467       .  S
C445        H450   1.088       .  S
C445        C446   1.348       .  D
C446        C558   1.425       .  S
C451        N452   1.361       .  A
C451        N456   1.359       .  A
C451        C554   1.431       .  S
N452        C453   1.359       .  A
C453        N454   1.346       .  A
C453        C552   1.418       .  S
N454        C455   1.343       .  A
C455        N456   1.353       .  A
C455        C549   1.418       .  S
N457        C461   1.343       .  A
N457        N458   1.324       .  A
N457       Cu465   2.076       .  S
N458        C459   1.344       .  A
N458       Cu464   2.072       .  S
C459        C460   1.380       .  A
C459        H462   1.082       .  S
C460        C591   1.431       .  S
C460        C461   1.380       .  A
C461        H463   1.083       .  S
Cu464       N467   2.072       .  S
Cu465       N475   2.075       .  S
Cu466       N468   2.052       .  S
Cu466       N474   2.053       .  S
N467        C471   1.347       .  A
N467        N468   1.320       .  A
N468        C469   1.339       .  A
C469        C470   1.377       .  A
C469        H472   1.083       .  S
C470        C556   1.433       .  S
C470        C471   1.384       .  A
C471        H473   1.082       .  S
N474        C478   1.339   1_655  A
N474        N475   1.321       .  A
N475        C476   1.348   1_655  A
C476        C477   1.383       .  A
C476        H479   1.082       .  S
C477        C553   1.432       .  S
C477        C478   1.374       .  A
C478        H480   1.082       .  S
C481        C482   1.550       .  S
C481        C487   1.525       .  S
C481        C485   1.542       .  S
C481        C548   1.480       .  S
C482        H489   1.086       .  S
C482        C483   1.376       .  D
C483        C484   1.541       .  S
C483        C564   1.462       .  S
C484        C488   1.540       .  S
C484        C486   1.540       .  S
C484        H490   1.112       .  S
C485        H491   1.086       .  S
C485        C486   1.368       .  D
C486        C570   1.456       .  S
C487        H492   1.088       .  S
C487        C488   1.350       .  D
C488        C551   1.431       .  S
C493        C494   1.557       .  S
C493        C499   1.524       .  S
C493        C497   1.543       .  S
C493        C732   1.485       .  S
C494        H501   1.085       .  S
C494        C495   1.381       .  D
C495        C496   1.538       .  S
C495        C568   1.467       .  S
C496        C500   1.534       .  S
C496        C498   1.540       .  S
C496        H502   1.112       .  S
C497        H503   1.086       .  S
C497        C498   1.370       .  D
C498        C566   1.457       .  S
C499        H504   1.088       .  S
C499        C500   1.348       .  D
C500        C550   1.427       .  S
C505        N506   1.373       .  A
C505        N510   1.360       .  A
C505        C626   1.460       .  S
N506        C507   1.371       .  A
C507        N508   1.355       .  A
C507        C541   1.456       .  S
N508        C509   1.353       .  A
C509        N510   1.357       .  A
C509        C537   1.439       .  S
C511        N512   1.358       .  A
C511        N516   1.368       .  A
C511        C582   1.450       .  S
N512        C513   1.355       .  A
C513        N514   1.355       .  A
C513        C540   1.439       .  S
N514        C515   1.358       .  A
C515        N516   1.367       .  A
C515        C536   1.451   1_655  S
C517        N518   1.368       .  A
C517        N522   1.359       .  A
C517        C545   1.450       .  S
N518        C519   1.367       .  A
C519        N520   1.356       .  A
C519        C533   1.450       .  S
N520        C521   1.354       .  A
C521        N522   1.356       .  A
C521        C529   1.438       .  S
C523        N524   1.357       .  A
C523        N528   1.370       .  A
C523        C610   1.453       .  S
N524        C525   1.354       .  A
C525        N526   1.356       .  A
C525        C532   1.438       .  S
N526        C527   1.358       .  A
C527        N528   1.370       .  A
C527        C544   1.457   1_455  S
C529        C530   1.207       .  T
C530        C531   1.414       .  S
C531        C532   1.207       .  T
C533        C534   1.215       .  T
C534        C535   1.427       .  S
C535        C536   1.215       .  T
C537        C538   1.208       .  T
C538        C539   1.415       .  S
C539        C540   1.207       .  T
C541        C542   1.219       .  T
C542        C543   1.434       .  S
C543        C544   1.219       .  T
C545        C546   1.215       .  T
C546        C547   1.426       .  S
C547        C548   1.214       .  T
C549        C550   1.196       .  T
C551        C552   1.198       .  T
C553        C554   1.203       .  T
C555        C556   1.203       .  T
C557        C558   1.195       .  T
C559        C560   1.198       .  T
C561        C562   1.201       .  T
C563        C564   1.218       .  T
C565        C566   1.215       .  T
C567        C568   1.221       .  T
C569        C570   1.214       .  T
C571        C572   1.203       .  T
C573        C574   1.194       .  T
C575        C576   1.199       .  T
C577        C578   1.203       .  T
C579        C580   1.215       .  T
C580        C581   1.426       .  S
C581        C582   1.215       .  T
C583        C584   1.220       .  T
C585        C586   1.215       .  T
C587        C588   1.221       .  T
C589        C590   1.212       .  T
C591        C592   1.202       .  T
C593        C594   1.206       .  T
C595        C596   1.197       .  T
C597        C598   1.195       .  T
C599        C600   1.203       .  T
C601        C602   1.196       .  T
C603        C604   1.199       .  T
C605        C606   1.204       .  T
C607        C608   1.217       .  T
C608        C609   1.430       .  S
C609        C610   1.217       .  T
C611        C612   1.203       .  T
C613        C614   1.195       .  T
C615        C616   1.199       .  T
C617        C618   1.203       .  T
C619        C620   1.220       .  T
C621        C622   1.210       .  T
C623        C624   1.221       .  T
C624        C625   1.437       .  S
C625        C626   1.221       .  T
C627        C628   1.222       .  T
C629        C630   1.218       .  T
C631        C632   1.205       .  T
C633        C634   1.196       .  T
C635        C636   1.197       .  T
C637        C638   1.201       .  T
C639        C640   1.222       .  T
C641        C642   1.211       .  T
C643        C644   1.221       .  T
C645        C646   1.217       .  T
C647        C648   1.202       .  T
C649        C650   1.203       .  T
C651        C652   1.197       .  T
C653        C654   1.195       .  T
C655        C656   1.201       .  T
C657        C658   1.217       .  T
C658        C659   1.430       .  S
C659        C660   1.217       .  T
C661        C662   1.208       .  T
C662        C663   1.416       .  S
C663        C664   1.208       .  T
C665        C666   1.215       .  T
C666        C667   1.426       .  S
C667        C668   1.214       .  T
C669        C670   1.214       .  T
C670        C671   1.426       .  S
C671        C672   1.214       .  T
C673        C674   1.215       .  T
C674        C675   1.427       .  S
C675        C676   1.215       .  T
C677        C678   1.203       .  T
C678        C679   1.408       .  S
C679        C680   1.204       .  T
C681        C682   1.216       .  T
C682        C683   1.428       .  S
C683        C684   1.216       .  T
C685        C686   1.217       .  T
C686        C687   1.430       .  S
C687        C688   1.217       .  T
C689        C690   1.214       .  T
C690        C691   1.426       .  S
C691        C692   1.215       .  T
C693        C694   1.204       .  T
C694        C695   1.409       .  S
C695        C696   1.204       .  T
C697        C698   1.217       .  T
C698        C699   1.431       .  S
C699        C700   1.217       .  T
C701        C702   1.214       .  T
C702        C703   1.425       .  S
C703        C704   1.214       .  T
C705        C706   1.215       .  T
C706        C707   1.428       .  S
C707        C708   1.215       .  T
C709        C710   1.208       .  T
C710        C711   1.415       .  S
C711        C712   1.208       .  T
C713        C714   1.218       .  T
C714        C715   1.432       .  S
C715        C716   1.218       .  T
C717        C718   1.219       .  T
C718        C719   1.434       .  S
C719        C720   1.219       .  T
C721        C722   1.219       .  T
C722        C723   1.433       .  S
C723        C724   1.219       .  T
C725        C726   1.206       .  T
C726        C727   1.413       .  S
C727        C728   1.206       .  T
C729        C730   1.218       .  T
C730        C731   1.431       .  S
C731        C732   1.218       .  T
C733        C734   1.216       .  T
C734        C735   1.429       .  S
C735        C736   1.216       .  T
C737        C738   1.218       .  T
C738        C739   1.432       .  S
C739        C740   1.218       .  T
C741        C742   1.207       .  T
C742        C743   1.415       .  S
C743        C744   1.207       .  T
C745        C746   1.217       .  T
C746        C747   1.429       .  S
C747        C748   1.216       .  T
C749        C750   1.219       .  T
C750        C751   1.433       .  S
C751        C752   1.219       .  T
