geometry optimzed in LAMMPS
_audit_creation_date              2020-11-30 
_audit_creation_method            'lammps2cif' 
_symmetry_space_group_name_H-M    'P1' 
_symmetry_Int_Tables_number       1 
_symmetry_cell_setting            triclinic 
loop_ 
_symmetry_equiv_pos_as_xyz 
  x,y,z 
_cell_length_a                    32.14573419067818 
_cell_length_b                    32.13100738305537 
_cell_length_c                    25.93343134095397 
_cell_angle_alpha                 91.18459368850158 
_cell_angle_beta                  90.49927589715153 
_cell_angle_gamma                 119.89352732095882 
loop_ 
_atom_site_label 
_atom_site_type_symbol 
_atom_site_fract_x 
_atom_site_fract_y 
_atom_site_fract_z 
_atom_site_charge 
N1          N  0.84205960  0.77209979  0.78663236    -0.06280
N2          N  0.85849360  0.81867979  0.79050452    -0.58400
N3          N  0.76095829  0.66691927  0.83173722    -0.05960
N4          N  0.72338183  0.65586264  0.86059712    -0.60530
N5          N  0.80074248  0.68832504  0.86007509    -0.05560
N6          N  0.79059280  0.69210980  0.90861832    -0.58380
N7          N  0.80207603  0.75088049  0.75897130    -0.05240
N8          N  0.79023050  0.78268148  0.74402633    -0.60880
C9          C  0.82592743  0.82509500  0.76376866     0.95900
C10         C  0.74213126  0.67071980  0.90873845     0.95670
N11         N  0.74265640  0.57253669  0.70671042    -0.06470
N12         N  0.71150079  0.52592960  0.70296542    -0.58980
N13         N  0.76547177  0.67891742  0.66316100    -0.04590
N14         N  0.74711158  0.69976416  0.63499114    -0.60230
N15         N  0.78267619  0.65758589  0.63350980    -0.06500
N16         N  0.77571775  0.66328018  0.58441630    -0.59250
N17         N  0.72529578  0.59414147  0.73563772    -0.04230
N18         N  0.68242186  0.56280883  0.75184425    -0.60320
Mn19       Mn  0.76253087  0.67250161  0.74728544     1.18440
C20         C  0.67377664  0.52004057  0.73154619     0.97980
C21         C  0.75354251  0.68989883  0.58576708     0.98640
N22         N  0.90176755  0.69039378  0.85870585    -0.06520
N23         N  0.91582199  0.69361876  0.90730130    -0.62820
N24         N  0.95866419  0.75408473  0.75657078    -0.05320
N25         N  0.00177306  0.78645358  0.74166752    -0.63500
N26         N  0.94011183  0.77427003  0.78593854    -0.06020
N27         N  0.97010747  0.82084816  0.79164321    -0.63090
N28         N  0.92128520  0.67075885  0.82987428    -0.04920
N29         N  0.94899566  0.66043740  0.85848890    -0.63780
Mn30       Mn  0.87119272  0.73135618  0.82378274     1.10660
C31         C  0.94478967  0.67429367  0.90686274     0.99200
C32         C  0.00804485  0.82781562  0.76344736     0.99280
N33         N  0.88353135  0.65916785  0.63169221    -0.06030
N34         N  0.89466686  0.66467475  0.58222136    -0.61400
N35         N  0.88247015  0.59730079  0.73449192    -0.05350
N36         N  0.89438007  0.56660322  0.75275722    -0.58130
N37         N  0.84259130  0.57467657  0.70643735    -0.06660
N38         N  0.82657843  0.52794246  0.70515762    -0.60970
N39         N  0.92283362  0.68177245  0.66068437    -0.05650
N40         N  0.96112652  0.70339590  0.63182358    -0.58160
Mn41       Mn  0.81235139  0.61484778  0.66793384     1.20190
Mn42       Mn  0.92208266  0.67578914  0.74514903     1.10090
Cl43       Cl  0.84188838  0.67327967  0.74605531    -0.86130
C44         C  0.94322709  0.69275306  0.58303352     0.96210
C45         C  0.85931679  0.52351659  0.73424741     0.96000
N46         N  0.90164250  0.20968860  0.64681684    -0.06280
N47         N  0.91539579  0.21509140  0.59875988    -0.58400
N48         N  0.95921808  0.21181664  0.75617449    -0.05960
N49         N  0.00079531  0.22183193  0.77761200    -0.60530
N50         N  0.94083151  0.17110577  0.72966447    -0.05560
N51         N  0.96929533  0.15276662  0.73242042    -0.58380
N52         N  0.92230875  0.25123985  0.67210476    -0.05240
N53         N  0.95198974  0.28547136  0.64142759    -0.60880
C54         C  0.94705516  0.26225861  0.59542865     0.95900
C55         C  0.00661158  0.18424516  0.76283409     0.95670
N56         N  0.88057331  0.23596543  0.86825322    -0.06470
N57         N  0.89176693  0.24742645  0.91783836    -0.58980
N58         N  0.87932371  0.29048955  0.76030010    -0.04590
N59         N  0.89200618  0.33394294  0.74457229    -0.60230
N60         N  0.83959196  0.27344867  0.78669712    -0.06500
N61         N  0.82486799  0.30511748  0.78942288    -0.59250
N62         N  0.92007148  0.25285753  0.84154165    -0.04230
N63         N  0.95820187  0.27517631  0.87207522    -0.60320
Mn64       Mn  0.92108975  0.25284406  0.75735962     1.18440
C65         C  0.94066257  0.27215158  0.91971947     0.97980
C66         C  0.85777450  0.34290435  0.76292088     0.98640
N67         N  0.84481503  0.07407683  0.72544534    -0.06520
N68         N  0.86156215  0.04407518  0.72496017    -0.62820
N69         N  0.76422392  0.09200814  0.66547034    -0.05320
N70         N  0.72987039  0.06177227  0.63291834    -0.63500
N71         N  0.80575599  0.11220429  0.64239282    -0.06020
N72         N  0.80035367  0.09714555  0.59397806    -0.63090
N73         N  0.80368207  0.05556213  0.74913423    -0.04920
N74         N  0.79122966  0.01224774  0.76514599    -0.63780
Mn75       Mn  0.87339665  0.14191485  0.68570818     1.10660
C76         C  0.82808105  0.00607926  0.75035132     0.99200
C77         C  0.75303135  0.06575966  0.58821207     0.99280
N78         N  0.74186270  0.17459583  0.78099626    -0.06030
N79         N  0.71085062  0.19015424  0.77977971    -0.61400
N80         N  0.76292201  0.09449475  0.83513753    -0.05350
N81         N  0.74450765  0.05639952  0.86395644    -0.58130
N82         N  0.78000718  0.13409480  0.86392861    -0.06660
N83         N  0.77304841  0.12334058  0.91336272    -0.60970
N84         N  0.72540519  0.13463131  0.75292907    -0.05650
N85         N  0.68294715  0.12213134  0.73245159    -0.58160
Mn86       Mn  0.80985549  0.20481114  0.82667719     1.20190
Mn87       Mn  0.76283041  0.09346410  0.75071022     1.10090
Cl88       Cl  0.84169934  0.17339119  0.75517399    -0.86130
C89         C  0.67443034  0.15722013  0.74919552     0.96210
C90         C  0.75089940  0.07462785  0.91249740     0.96000
N91         N  0.13117425  0.77775209  0.35999691    -0.06280
N92         N  0.11973664  0.77315545  0.40940300    -0.58400
N93         N  0.13564214  0.72098095  0.25012423    -0.05960
N94         N  0.12506781  0.67896715  0.22933886    -0.60530
N95         N  0.17467591  0.73821237  0.27925574    -0.05560
N96         N  0.19139322  0.70805039  0.27878364    -0.58380
N97         N  0.09196543  0.75869898  0.33079129    -0.05240
N98         N  0.05332892  0.74071782  0.35928969    -0.60880
C99         C  0.07095810  0.74994620  0.40814371     0.95900
C100        C  0.16019174  0.67117670  0.24722699     0.95670
N101        N  0.11198336  0.79806633  0.13601455    -0.06470
N102        N  0.09847141  0.78844473  0.08689650    -0.58980
N103        N  0.05449018  0.79661335  0.24290816    -0.04590
N104        N  0.01168568  0.78342191  0.26115313    -0.60230
N105        N  0.07091105  0.83678694  0.21794197    -0.06500
N106        N  0.03934324  0.85166552  0.21846627    -0.59250
N107        N  0.09510548  0.75784179  0.16128891    -0.04230
N108        N  0.06985052  0.72041115  0.12987181    -0.60320
Mn109      Mn  0.09370440  0.75753636  0.24612198     1.18440
C110        C  0.07272207  0.73986277  0.08342021     0.97980
C111        C  0.00265480  0.81811075  0.24579171     0.98640
N112        N  0.27092326  0.83683979  0.28229487    -0.06520
N113        N  0.30129428  0.82066380  0.28328185    -0.62820
N114        N  0.24906363  0.91709717  0.33622358    -0.05320
N115        N  0.26942579  0.95564707  0.36656502    -0.63500
N116        N  0.23176594  0.87794808  0.36332186    -0.06020
N117        N  0.24039764  0.88943058  0.41320518    -0.63090
N118        N  0.28875726  0.87665746  0.25629420    -0.04920
N119        N  0.33203715  0.88842838  0.23999397    -0.63780
Mn120      Mn  0.20243625  0.80721132  0.32286542     1.10660
C121        C  0.33955256  0.85294061  0.25691550     0.99200
C122        C  0.26378299  0.93816934  0.41429848     0.99280
N123        N  0.16725401  0.93593451  0.22293936    -0.06030
N124        N  0.15001308  0.96562116  0.22413157    -0.61400
N125        N  0.25056538  0.91863888  0.16721599    -0.05350
N126        N  0.28731528  0.94766378  0.13887059    -0.58130
N127        N  0.21021353  0.90042298  0.13990768    -0.06660
N128        N  0.21907609  0.91655705  0.09247998    -0.60970
N129        N  0.20777126  0.95422550  0.24981725    -0.05650
N130        N  0.21893864  0.99678126  0.26976441    -0.58160
Mn131      Mn  0.13982863  0.86795747  0.17810365     1.20190
Mn132      Mn  0.25005509  0.91728037  0.25219321     1.10090
Cl133      Cl  0.17167528  0.83748516  0.24963566    -0.86130
C134        C  0.18212592  0.00295452  0.25425953     0.96210
C135        C  0.26731622  0.94560464  0.09210437     0.96000
N136        N  0.44441977  0.27384931  0.78906871    -0.06280
N137        N  0.49107882  0.30399905  0.78617766    -0.58400
N138        N  0.34388400  0.25243611  0.84602764    -0.05960
N139        N  0.32427871  0.27045796  0.87689249    -0.60530
N140        N  0.36681758  0.23533778  0.87270168    -0.05560
N141        N  0.36330196  0.24182483  0.92282856    -0.58380
N142        N  0.42031312  0.29047919  0.76361929    -0.05240
N143        N  0.44989889  0.33224215  0.74353392    -0.60880
C144        C  0.49385079  0.33996262  0.75735832     0.95900
C145        C  0.33651384  0.26377641  0.92451054     0.95670
N146        N  0.24012096  0.17041340  0.73412790    -0.06470
N147        N  0.19339981  0.15225817  0.73565740    -0.58980
N148        N  0.33733332  0.25166626  0.67648334    -0.04590
N149        N  0.34196799  0.28650272  0.64637071    -0.60230
N150        N  0.31535812  0.21025179  0.65088551    -0.06500
N151        N  0.30530916  0.21612016  0.60320452    -0.59250
N152        N  0.26234992  0.21111093  0.76069434    -0.04230
N153        N  0.23076060  0.22132185  0.78091277    -0.60320
Mn154      Mn  0.34144948  0.25272801  0.76184730     1.18440
C155        C  0.18748065  0.18386815  0.76534813     0.97980
C156        C  0.32225527  0.26372926  0.60050195     0.98640
N157        N  0.36695628  0.13409567  0.86929878    -0.06520
N158        N  0.36531810  0.12249723  0.91841711    -0.62820
N159        N  0.42160073  0.13570843  0.75904261    -0.05320
N160        N  0.45181419  0.12330588  0.73973076    -0.63500
N161        N  0.44493498  0.17563633  0.78720991    -0.06020
N162        N  0.49147254  0.19110405  0.78749022    -0.63090
N163        N  0.34393266  0.09472600  0.84026159    -0.04920
N164        N  0.32611778  0.05643104  0.86872348    -0.63780
Mn165      Mn  0.40691415  0.20538637  0.83143400     1.10660
C166        C  0.33955242  0.07350574  0.91759916     0.99200
C167        C  0.49530106  0.15823195  0.75754703     0.99280
N168        N  0.31763676  0.11401957  0.64786952    -0.06030
N169        N  0.30956753  0.10102937  0.59894100    -0.61400
N170        N  0.26358874  0.05528520  0.75294915    -0.05350
N171        N  0.23263663  0.01141936  0.76749890    -0.58130
N172        N  0.24092510  0.07428393  0.72955939    -0.06660
N173        N  0.19437801  0.04426036  0.72803618    -0.60970
N174        N  0.33969563  0.09401791  0.67053090    -0.05650
N175        N  0.34595357  0.06614463  0.63680463    -0.58160
Mn176      Mn  0.27860028  0.14225888  0.69030241     1.20190
Mn177      Mn  0.34264658  0.09411039  0.75570350     1.10090
Cl178      Cl  0.34261943  0.17371972  0.75989820    -0.86130
C179        C  0.32735018  0.07131564  0.59166842     0.96210
C180        C  0.18942280  0.00511645  0.75175807     0.96000
N181        N  0.07440728  0.23607619  0.23382100    -0.06280
N182        N  0.04563211  0.18944067  0.23198520    -0.58400
N183        N  0.09095011  0.33481292  0.17743104    -0.05960
N184        N  0.06369647  0.34426292  0.14708898    -0.60530
N185        N  0.10889180  0.31207579  0.15138188    -0.05560
N186        N  0.09414919  0.30571726  0.10266343    -0.58380
N187        N  0.05455033  0.25766269  0.25829360    -0.05240
N188        N  0.01087070  0.22563485  0.27268063    -0.60880
C189        C  0.00593438  0.18299349  0.25592750     0.95900
C190        C  0.06640303  0.32641199  0.10041819     0.95670
N191        N  0.17348660  0.43953569  0.29204738    -0.06470
N192        N  0.19025410  0.48623526  0.28954453    -0.58980
N193        N  0.09428926  0.33852731  0.34607248    -0.04590
N194        N  0.05689478  0.32020181  0.37616430    -0.60230
N195        N  0.13442896  0.36190759  0.37353473    -0.06500
N196        N  0.12501593  0.36016876  0.42326369    -0.59250
N197        N  0.13337328  0.41577731  0.26472338    -0.04230
N198        N  0.12233800  0.44581284  0.24292767    -0.60320
Mn199      Mn  0.09237483  0.33689965  0.26180322     1.18440
C200        C  0.15807553  0.48982233  0.25853941     0.97980
C201        C  0.07647791  0.33419084  0.42393423     0.98640
N202        N  0.20824523  0.31312929  0.15181624    -0.06520
N203        N  0.21382847  0.30454690  0.10340585    -0.62820
N204        N  0.21183476  0.25911163  0.25903518    -0.05320
N205        N  0.22424522  0.22831805  0.27629614    -0.63500
N206        N  0.17066992  0.23626729  0.23342355    -0.06020
N207        N  0.15396920  0.18955678  0.23294386    -0.63090
N208        N  0.24993435  0.33489573  0.17650624    -0.04920
N209        N  0.28437058  0.34059738  0.14474111    -0.63780
Mn210      Mn  0.14057015  0.27439471  0.19198906     1.10660
C211        C  0.26135453  0.32187167  0.09865190     0.99200
C212        C  0.18726720  0.18508375  0.26045133     0.99280
N213        N  0.23430126  0.36179548  0.37390389    -0.06030
N214        N  0.24080622  0.35883119  0.42387396    -0.61400
N215        N  0.28879528  0.41705005  0.26559183    -0.05350
N216        N  0.33093031  0.44833692  0.24724690    -0.58130
N217        N  0.27069141  0.43944297  0.29212084    -0.06660
N218        N  0.29968686  0.48617879  0.29178242    -0.60970
N219        N  0.25252098  0.33969751  0.34694146    -0.05650
N220        N  0.27174113  0.32140665  0.37780528    -0.58160
Mn221      Mn  0.20377800  0.40162850  0.33459283     1.20190
Mn222      Mn  0.25226471  0.33809780  0.26201289     1.10090
Cl223      Cl  0.17248847  0.33803017  0.26272646    -0.86130
C224        C  0.26433082  0.33368523  0.42548192     0.96210
C225        C  0.33707896  0.49135439  0.26376020     0.96000
N226        N  0.77129127  0.83252052  0.21629295    -0.06280
N227        N  0.81777243  0.84826557  0.21831319    -0.58400
N228        N  0.66828318  0.75366339  0.15692184    -0.05960
N229        N  0.65688823  0.71724183  0.12407901    -0.60530
N230        N  0.69223131  0.79455400  0.13324833    -0.05560
N231        N  0.69719444  0.78661911  0.08432211    -0.58380
N232        N  0.74773883  0.79181277  0.24014008    -0.05240
N233        N  0.77772834  0.77907102  0.25934434    -0.60880
C234        C  0.82134017  0.81475507  0.24557667     0.95900
C235        C  0.67452593  0.73828637  0.07840646     0.95670
N236        N  0.57165705  0.73956710  0.27448151    -0.06470
N237        N  0.52505397  0.71113228  0.27743128    -0.58980
N238        N  0.67312430  0.75638732  0.32651229    -0.04590
N239        N  0.69374592  0.73848179  0.35569541    -0.60230
N240        N  0.65492979  0.77745945  0.35495550    -0.06500
N241        N  0.66307854  0.77412235  0.40445841    -0.59250
N242        N  0.59079222  0.71884998  0.24692776    -0.04230
N243        N  0.55737915  0.67513506  0.23161174    -0.60320
Mn244      Mn  0.66929407  0.75365580  0.24223173     1.18440
C245        C  0.51641869  0.67104276  0.25078707     0.97980
C246        C  0.68765437  0.74974634  0.40440756     0.98640
N247        N  0.69645172  0.89484059  0.13533953    -0.06520
N248        N  0.70580256  0.90952426  0.08773782    -0.62820
N249        N  0.75364200  0.95187324  0.24406036    -0.05320
N250        N  0.78589640  0.99466660  0.26273793    -0.63500
N251        N  0.77467359  0.93133146  0.21976935    -0.06020
N252        N  0.82155371  0.95942120  0.22194865    -0.63090
N253        N  0.67657601  0.91651568  0.15988077    -0.04920
N254        N  0.67360102  0.94738554  0.12900950    -0.63780
Mn255      Mn  0.73392028  0.86345049  0.17553866     1.10660
C256        C  0.69171947  0.94242919  0.08358122     0.99200
C257        C  0.82832290  0.99890370  0.24879783     0.99280
N258        N  0.65630421  0.87821554  0.35676954    -0.06030
N259        N  0.66016092  0.88876834  0.40674616    -0.61400
N260        N  0.59590889  0.87638514  0.24865212    -0.05350
N261        N  0.56346321  0.88679516  0.23093589    -0.58130
N262        N  0.57496655  0.83738829  0.27594736    -0.06660
N263        N  0.52845599  0.82053998  0.27675939    -0.60970
N264        N  0.67726775  0.91771365  0.33020870    -0.05650
N265        N  0.69620940  0.95595045  0.36141858    -0.58160
Mn266      Mn  0.61397665  0.80788675  0.31707009     1.20190
Mn267      Mn  0.67527594  0.91664453  0.24538162     1.10090
Cl268      Cl  0.67283106  0.83532150  0.24481123    -0.86130
C269        C  0.68511593  0.93733359  0.40879638     0.96210
C270        C  0.52104761  0.85107423  0.24838320     0.96000
C271        C  0.96072740  0.13557051  0.25557930    -0.05500
C272        C  0.92687917  0.12360850  0.29508085    -0.02620
C273        C  0.88457356  0.07820196  0.29418777     0.02370
C274        C  0.87529508  0.04445760  0.25340408    -0.05500
C275        C  0.90988531  0.05600173  0.21466391    -0.02600
C276        C  0.95159207  0.10138700  0.21512329     0.02370
C277        C  0.93528246  0.15773700  0.33695261     0.37020
C278        C  0.90263657  0.02214280  0.17268400     0.37010
C279        C  0.98344976  0.11312483  0.17158919     0.35430
C280        C  0.85141433  0.06587757  0.33638400     0.35430
N281        N  0.00842806  0.12201111  0.13668679    -0.39390
N282        N  0.82516512  0.05615504  0.37019559    -0.39390
N283        N  0.89746744  0.99543027  0.13925412    -0.38830
N284        N  0.94144951  0.18488960  0.37024751    -0.38830
C285        C  0.38226011  0.53777397  0.25927248    -0.05500
C286        C  0.40780365  0.54985133  0.21276664    -0.02620
C287        C  0.45152984  0.59359151  0.20957186     0.02370
C288        C  0.47003029  0.62537659  0.25293047    -0.05500
C289        C  0.44426586  0.61317016  0.29945234    -0.02600
C290        C  0.40058755  0.56987766  0.30246701     0.02370
C291        C  0.38839931  0.51802572  0.16764860     0.37020
C292        C  0.46342483  0.64383982  0.34559017     0.37010
C293        C  0.37582134  0.55786456  0.35124681     0.35430
C294        C  0.47666903  0.60639931  0.16119118     0.35430
N295        N  0.35629249  0.54867381  0.39019187    -0.39390
N296        N  0.49662058  0.61658167  0.12252278    -0.39390
N297        N  0.47846191  0.66811046  0.38243290    -0.38830
N298        N  0.37281925  0.49261584  0.13169173    -0.38830
C299        C  0.27858027  0.31906457  0.47325255    -0.05500
C300        C  0.24450818  0.27798219  0.49858688    -0.02620
C301        C  0.25862990  0.26089242  0.54107901     0.02370
C302        C  0.30732764  0.28452987  0.55826934    -0.05500
C303        C  0.34111831  0.32664628  0.53390547    -0.02600
C304        C  0.32682229  0.34364943  0.49120630     0.02370
C305        C  0.19506912  0.25225561  0.47971878     0.37020
C306        C  0.39087262  0.35141066  0.55148635     0.37010
C307        C  0.36187207  0.38600798  0.46512035     0.35430
C308        C  0.22253650  0.21925337  0.56749646     0.35430
N309        N  0.38982186  0.41978563  0.44423338    -0.39390
N310        N  0.19377433  0.18605212  0.58852606    -0.39390
N311        N  0.43056587  0.37114062  0.56557840    -0.38830
N312        N  0.15572466  0.23163510  0.46451250    -0.38830
C313        C  0.28213101  0.30931835  0.05290564    -0.05500
C314        C  0.25111029  0.27770548  0.01276360    -0.02620
C315        C  0.26898750  0.25999513  0.97396269     0.02370
C316        C  0.31844279  0.27617600  0.97147961    -0.05500
C317        C  0.35001831  0.30907787  0.00944419    -0.02600
C318        C  0.33209143  0.32540843  0.05018017     0.02370
C319        C  0.20055783  0.26346455  0.00935212     0.37020
C320        C  0.40123412  0.32760919  0.00541065     0.37010
C321        C  0.36580822  0.36029771  0.08770285     0.35430
C322        C  0.23584257  0.22385392  0.93672666     0.35430
N323        N  0.39300856  0.38829041  0.11734231    -0.39390
N324        N  0.20941967  0.19485506  0.90737690    -0.39390
N325        N  0.44210851  0.34253277  0.00208288    -0.38830
N326        N  0.16030431  0.25204452  0.00585634    -0.38830
C327        C  0.29273117  0.97827883  0.04884808    -0.05500
C328        C  0.28545465  0.95937409  0.99808218    -0.02620
C329        C  0.30381606  0.99016847  0.95591058     0.02370
C330        C  0.32717617  0.04113960  0.96348628    -0.05500
C331        C  0.33745893  0.05984414  0.01508066    -0.02600
C332        C  0.32139106  0.02852962  0.05731933     0.02370
C333        C  0.26007050  0.90764496  0.98929167     0.37020
C334        C  0.36429513  0.11124193  0.02557049     0.37010
C335        C  0.33376537  0.04839754  0.10958709     0.35430
C336        C  0.29936091  0.96823979  0.90514549     0.35430
N337        N  0.34417655  0.06436915  0.15120654    -0.39390
N338        N  0.29576125  0.95019319  0.86498607    -0.39390
N339        N  0.38573850  0.15219297  0.03443893    -0.38830
N340        N  0.24004099  0.86643871  0.98232277    -0.38830
C341        C  0.31475817  0.03898131  0.54436869    -0.05500
C342        C  0.32909991  0.00375452  0.53952883    -0.02620
C343        C  0.31123916  0.96947463  0.49804391     0.02370
C344        C  0.27920183  0.97009298  0.46101329    -0.05500
C345        C  0.26614255  0.00581775  0.46462823    -0.02600
C346        C  0.28441584  0.04060772  0.50489452     0.02370
C347        C  0.36353256  0.00337483  0.57574701     0.37020
C348        C  0.23300394  0.00658889  0.42669725     0.37010
C349        C  0.27148007  0.07800427  0.50406374     0.35430
C350        C  0.32749618  0.93489232  0.49214299     0.35430
N351        N  0.26077618  0.10745908  0.50283745    -0.39390
N352        N  0.34065221  0.90746205  0.48726536    -0.39390
N353        N  0.20686039  0.00727064  0.39628658    -0.38830
N354        N  0.39122966  0.00299198  0.60427733    -0.38830
C355        C  0.18819331  0.13969153  0.26166943    -0.05500
C356        C  0.21160592  0.12904428  0.22219645    -0.02620
C357        C  0.20901227  0.08401962  0.21982286     0.02370
C358        C  0.18383107  0.04975742  0.25747117    -0.05500
C359        C  0.16003934  0.06021855  0.29679388    -0.02600
C360        C  0.16211793  0.10519285  0.29877050     0.02370
C361        C  0.23713258  0.16396688  0.18300916     0.37020
C362        C  0.13248265  0.02447540  0.33436008     0.37010
C363        C  0.13693644  0.11582641  0.33840761     0.35430
C364        C  0.23031253  0.07202559  0.17711190     0.35430
N365        N  0.11681260  0.12437929  0.36993481    -0.39390
N366        N  0.24653266  0.06213445  0.14255451    -0.39390
N367        N  0.11023274  0.99616546  0.36448178    -0.38830
N368        N  0.25736296  0.19185191  0.15178697    -0.38830
C369        C  0.16038215  0.62489073  0.24016289    -0.05500
C370        C  0.11692833  0.58076972  0.23266633    -0.02620
C371        C  0.11643736  0.53673214  0.23608155     0.02370
C372        C  0.15940584  0.53603709  0.24723311    -0.05500
C373        C  0.20344810  0.58014422  0.24888968    -0.02600
C374        C  0.20386443  0.62410084  0.24433124     0.02370
C375        C  0.07198025  0.57984953  0.22242265     0.37020
C376        C  0.24877962  0.58078338  0.25426399     0.37010
C377        C  0.24934005  0.66834899  0.24069112     0.35430
C378        C  0.07081216  0.49240335  0.22983332     0.35430
N379        N  0.28562997  0.70337396  0.23646905    -0.39390
N380        N  0.03427520  0.45732415  0.22452610    -0.39390
N381        N  0.28507204  0.58163560  0.25862239    -0.38830
N382        N  0.03599896  0.57865428  0.21381458    -0.38830
C383        C  0.47295668  0.84845096  0.24412875    -0.05500
C384        C  0.46674772  0.88302316  0.21721782    -0.02620
C385        C  0.42288902  0.88344582  0.21951787     0.02370
C386        C  0.38514031  0.85086596  0.25100104    -0.05500
C387        C  0.39134024  0.81578200  0.27708652    -0.02600
C388        C  0.43299366  0.81239992  0.27037229     0.02370
C389        C  0.50484988  0.91794942  0.18592838     0.37020
C390        C  0.35643631  0.78388889  0.31352845     0.37010
C391        C  0.43319537  0.77042932  0.29010607     0.35430
C392        C  0.41752128  0.91813296  0.18939824     0.35430
N393        N  0.43259359  0.73657864  0.30554088    -0.39390
N394        N  0.41363876  0.94592268  0.16517814    -0.39390
N395        N  0.32931153  0.75848506  0.34305033    -0.38830
N396        N  0.53490677  0.94596103  0.16073866    -0.38830
C397        C  0.86696793  0.81446141  0.25299877    -0.05500
C398        C  0.86816195  0.77131345  0.24606342    -0.02620
C399        C  0.91238948  0.77217511  0.24637290     0.02370
C400        C  0.95596015  0.81637229  0.25222961    -0.05500
C401        C  0.95456100  0.85914601  0.26153884    -0.02600
C402        C  0.91023232  0.85808555  0.26268615     0.02370
C403        C  0.82430068  0.72616293  0.23506817     0.37020
C404        C  0.99869584  0.90446498  0.27011510     0.37010
C405        C  0.90927502  0.90200281  0.27443556     0.35430
C406        C  0.91254709  0.72747006  0.23773433     0.35430
N407        N  0.90858014  0.93700237  0.28397710    -0.39390
N408        N  0.91213128  0.69153380  0.23115684    -0.39390
N409        N  0.03380464  0.94075234  0.27657856    -0.38830
N410        N  0.78949129  0.69012485  0.22609668    -0.38830
C411        C  0.97239254  0.29363601  0.96719965    -0.05500
C412        C  0.02317229  0.32168811  0.96255081    -0.02620
C413        C  0.05377576  0.33223865  0.00605931     0.02370
C414        C  0.03447209  0.31993488  0.05551054    -0.05500
C415        C  0.98432565  0.29913399  0.06136780    -0.02600
C416        C  0.95333912  0.28531557  0.01748261     0.02370
C417        C  0.04462813  0.34288395  0.91402482     0.37020
C418        C  0.96413248  0.29006314  0.11249395     0.37010
C419        C  0.90206070  0.26329238  0.02485662     0.35430
C420        C  0.10545408  0.35647877  0.99996267     0.35430
N421        N  0.86122731  0.24613318  0.03117259    -0.39390
N422        N  0.14661342  0.37556925  0.99512167    -0.39390
N423        N  0.94796174  0.28315546  0.15322820    -0.38830
N424        N  0.06196530  0.36086110  0.87578534    -0.38830
C425        C  0.98152707  0.28182374  0.55214158    -0.05500
C426        C  0.99241324  0.25077483  0.52229317    -0.02620
C427        C  0.02501530  0.26888147  0.48184495     0.02370
C428        C  0.04751632  0.31784283  0.47065798    -0.05500
C429        C  0.03793739  0.34921138  0.50037853    -0.02600
C430        C  0.00500480  0.33134418  0.54103417     0.02370
C431        C  0.97131911  0.20004101  0.53288188     0.37020
C432        C  0.06068023  0.39954502  0.48780087     0.37010
C433        C  0.99420170  0.36381312  0.56994132     0.35430
C434        C  0.03566150  0.23689275  0.45142460     0.35430
N435        N  0.98567808  0.38984242  0.59290671    -0.39390
N436        N  0.04407810  0.21147582  0.42711204    -0.39390
N437        N  0.07878171  0.43967907  0.47766244    -0.38830
N438        N  0.95462565  0.15953140  0.54074775    -0.38830
C439        C  0.73781122  0.04378207  0.95824616    -0.05500
C440        C  0.70507299  0.04303530  0.99451060    -0.02620
C441        C  0.68909280  0.00955828  0.03469418     0.02370
C442        C  0.70633497  0.97669506  0.03952219    -0.05500
C443        C  0.73990631  0.97836646  0.00268965    -0.02600
C444        C  0.75489053  0.01125648  0.96245198     0.02370
C445        C  0.68607889  0.07531668  0.98901874     0.37020
C446        C  0.76069826  0.94733451  0.00552162     0.37010
C447        C  0.78875879  0.01192853  0.92521251     0.35430
C448        C  0.65404385  0.00876629  0.07002047     0.35430
N449        N  0.81548202  0.01228420  0.89540125    -0.39390
N450        N  0.62610599  0.00861384  0.09796531    -0.39390
N451        N  0.77780557  0.92307011  0.00724522    -0.38830
N452        N  0.67081914  0.10096569  0.98451193    -0.38830
C453        C  0.73334970  0.03020728  0.54425045    -0.05500
C454        C  0.68807857  0.01648343  0.52144111    -0.02620
C455        C  0.67155852  0.98496717  0.47771078     0.02370
C456        C  0.70009589  0.96697418  0.45687550    -0.05500
C457        C  0.74442587  0.97926582  0.48044970    -0.02600
C458        C  0.76077353  0.01012183  0.52435980     0.02370
C459        C  0.65912703  0.03578893  0.54188071     0.37020
C460        C  0.77370791  0.96071616  0.45882558     0.37010
C461        C  0.80530347  0.01973646  0.54969779     0.35430
C462        C  0.62557409  0.97161429  0.45350815     0.35430
N463        N  0.84074970  0.02727180  0.56986933    -0.39390
N464        N  0.58889798  0.96087267  0.43409482    -0.39390
N465        N  0.79711006  0.94610345  0.44141758    -0.38830
N466        N  0.63591904  0.05108780  0.55819199    -0.38830
C467        C  0.13946751  0.18005048  0.77390819    -0.05500
C468        C  0.09665547  0.13945486  0.75436596    -0.02620
C469        C  0.05273906  0.13939371  0.75412665     0.02370
C470        C  0.05054002  0.18004276  0.77305595    -0.05500
C471        C  0.09155167  0.21717632  0.79938156    -0.02600
C472        C  0.13566203  0.21739250  0.79955675     0.02370
C473        C  0.09668045  0.09693452  0.73408004     0.37020
C474        C  0.08897394  0.25524492  0.82743431     0.37010
C475        C  0.17682211  0.25659123  0.82642091     0.35430
C476        C  0.00994994  0.09653409  0.73454022     0.35430
N477        N  0.20927985  0.28797705  0.84813341    -0.39390
N478        N  0.97622924  0.06216014  0.71885590    -0.39390
N479        N  0.08765664  0.28569656  0.85056842    -0.38830
N480        N  0.09598510  0.06281062  0.71766752    -0.38830
C481        C  0.54064781  0.15712281  0.75070214    -0.05500
C482        C  0.54075898  0.11323479  0.75424214    -0.02620
C483        C  0.58424868  0.11263115  0.75151746     0.02370
C484        C  0.62772449  0.15556061  0.74318859    -0.05500
C485        C  0.62688260  0.19829785  0.73492042    -0.02600
C486        C  0.58427362  0.19981782  0.74191078     0.02370
C487        C  0.49689224  0.06906968  0.76500261     0.37020
C488        C  0.66922183  0.23989968  0.71599697     0.37010
C489        C  0.58642213  0.24590045  0.74260639     0.35430
C490        C  0.58416785  0.06803155  0.75972840     0.35430
N491        N  0.58929733  0.28321375  0.74508811    -0.39390
N492        N  0.58393008  0.03239277  0.76628917    -0.39390
N493        N  0.70252475  0.27240093  0.69918581    -0.38830
N494        N  0.46204559  0.03381510  0.77375049    -0.38830
C495        C  0.04041095  0.71336212  0.03853404    -0.05500
C496        C  0.05900252  0.71984804  0.98846775    -0.02620
C497        C  0.02771333  0.70332905  0.94484103     0.02370
C498        C  0.97739112  0.68063691  0.95118033    -0.05500
C499        C  0.95883764  0.67013193  0.00132357    -0.02600
C500        C  0.99015407  0.68599989  0.04483875     0.02370
C501        C  0.11051391  0.74370890  0.98194927     0.37020
C502        C  0.90727535  0.64374376  0.00816784     0.37010
C503        C  0.97021293  0.67617062  0.09600493     0.35430
C504        C  0.04779021  0.71253280  0.89370237     0.35430
N505        N  0.95413341  0.66791732  0.13674814    -0.39390
N506        N  0.06404236  0.71991580  0.85300059    -0.39390
N507        N  0.86615987  0.62272164  0.01351892    -0.38830
N508        N  0.15159854  0.76234089  0.97682151    -0.38830
C509        C  0.03963426  0.73540946  0.45402996    -0.05500
C510        C  0.00907094  0.68620838  0.46380352    -0.02620
C511        C  0.97673001  0.67213722  0.50514813     0.02370
C512        C  0.97429939  0.70712895  0.53683344    -0.05500
C513        C  0.00466928  0.75626562  0.52676908    -0.02600
C514        C  0.03707473  0.77035296  0.48553661     0.03030
C515        C  0.01166855  0.64998692  0.43190374     0.37020
C516        C  0.00152848  0.79242794  0.55798550     0.37010
C517        C  0.06655394  0.82081378  0.47429626     0.35430
C518        C  0.94728710  0.62166761  0.51631299     0.35430
N519        N  0.08992314  0.86103360  0.46509309    -0.39390
N520        N  0.92395226  0.58142182  0.52542168    -0.39390
N521        N  0.99883309  0.82131673  0.58269604    -0.38830
N522        N  0.01384353  0.62111799  0.40650081    -0.38830
C523        C  0.82762257  0.87231114  0.75951034    -0.05500
C524        C  0.80042058  0.87902902  0.72041898    -0.02620
C525        C  0.79995533  0.92257577  0.71835531     0.02370
C526        C  0.82805821  0.96045475  0.75363510    -0.05500
C527        C  0.85731653  0.95539356  0.79056412    -0.02600
C528        C  0.85617561  0.91118061  0.79470435     0.02370
C529        C  0.77403336  0.84224029  0.68082212     0.37020
C530        C  0.88886455  0.99596513  0.82424852     0.37010
C531        C  0.88372324  0.90623470  0.83635545     0.35430
C532        C  0.77157087  0.92907874  0.67877995     0.35430
N533        N  0.90575584  0.90274128  0.86982425    -0.39390
N534        N  0.74906115  0.93440986  0.64727252    -0.39390
N535        N  0.91430484  0.02839439  0.85079684    -0.38830
N536        N  0.75307387  0.81327312  0.64888374    -0.38830
C537        C  0.85877908  0.47760040  0.74254766    -0.05500
C538        C  0.81643633  0.43642694  0.75748463    -0.02620
C539        C  0.81629130  0.39303033  0.76602336     0.02370
C540        C  0.85828644  0.38971901  0.75769224    -0.05500
C541        C  0.90124795  0.43202818  0.74486632    -0.02600
C542        C  0.90131915  0.47539731  0.73718091     0.02370
C543        C  0.77329878  0.43920221  0.76633726     0.37020
C544        C  0.94653593  0.43242030  0.74190395     0.37010
C545        C  0.94547114  0.51771724  0.72266656     0.35430
C546        C  0.77304469  0.35286895  0.78550240     0.35430
N547        N  0.98073812  0.55140888  0.71130629    -0.39390
N548        N  0.73862633  0.32161841  0.80224290    -0.39390
N549        N  0.98289425  0.43324512  0.73977491    -0.38830
N550        N  0.73894301  0.44137816  0.77357567    -0.38830
C551        C  0.14260021  0.95967527  0.75535516    -0.05500
C552        C  0.13330194  0.92923106  0.79761941    -0.02620
C553        C  0.08915188  0.88597507  0.80015059     0.02370
C554        C  0.05332760  0.87387539  0.76180877    -0.05500
C555        C  0.06118317  0.90516401  0.72132585    -0.02600
C556        C  0.10622863  0.94686355  0.71673080     0.02370
C557        C  0.16809092  0.94292369  0.83967425     0.37020
C558        C  0.02223528  0.89528538  0.68542084     0.37010
C559        C  0.11521102  0.97496777  0.67080060     0.35430
C560        C  0.08010772  0.85416621  0.84277521     0.35430
N561        N  0.12220303  0.99700813  0.63391501    -0.39390
N562        N  0.07273683  0.82880833  0.87679418    -0.39390
N563        N  0.99091392  0.88814793  0.65754814    -0.38830
N564        N  0.19544104  0.95378746  0.87364036    -0.38830
C565        C  0.62722282  0.47336369  0.73764324    -0.05500
C566        C  0.59006336  0.47164285  0.76895755    -0.02620
C567        C  0.54670290  0.42806081  0.77490526     0.02370
C568        C  0.53889261  0.38576121  0.74910599    -0.05500
C569        C  0.57380408  0.38743413  0.71557890    -0.02600
C570        C  0.61837136  0.43027155  0.71118266     0.02370
C571        C  0.59520884  0.51422774  0.79554048     0.37020
C572        C  0.56228740  0.34588294  0.68260634     0.37010
C573        C  0.65448670  0.42898051  0.67914238     0.35430
C574        C  0.50957811  0.42676413  0.80757779     0.35430
N575        N  0.68308351  0.42729508  0.65375467    -0.39390
N576        N  0.47986611  0.42571494  0.83333684    -0.39390
N577        N  0.55267109  0.31309232  0.65552612    -0.38830
N578        N  0.59859649  0.54787627  0.81675476    -0.38830
C579        C  0.68052212  0.71408758  0.03111784    -0.05500
C580        C  0.69445983  0.73952466  0.98449123    -0.02620
C581        C  0.71383541  0.72463068  0.94445599     0.02370
C582        C  0.71690417  0.68259025  0.94894595    -0.05500
C583        C  0.69739335  0.65368810  0.99206376    -0.02600
C584        C  0.67923770  0.66924720  0.03321443     0.02370
C585        C  0.68906120  0.78130276  0.97715054     0.37020
C586        C  0.69676892  0.60831976  0.99428318     0.37010
C587        C  0.66033853  0.63921428  0.07761887     0.35430
C588        C  0.73253705  0.75389925  0.89929619     0.35430
N589        N  0.64504760  0.61481143  0.11275677    -0.39390
N590        N  0.74766033  0.77744390  0.86353150    -0.39390
N591        N  0.69603538  0.57198824  0.99582365    -0.38830
N592        N  0.68475656  0.81455770  0.97105098    -0.38830
C593        C  0.70507333  0.73551187  0.45133584    -0.05500
C594        C  0.74327088  0.72529937  0.44772760    -0.02620
C595        C  0.75872323  0.71026616  0.49115546     0.02370
C596        C  0.73652436  0.70505830  0.53933199    -0.05500
C597        C  0.69804294  0.71478797  0.54289395    -0.02600
C598        C  0.68275661  0.73013483  0.49951494     0.02370
C599        C  0.76805414  0.73084939  0.39959509     0.37020
C600        C  0.67221876  0.70726856  0.59061492     0.37010
C601        C  0.64263335  0.73863615  0.50470632     0.35430
C602        C  0.79841219  0.70106124  0.48576848     0.35430
N603        N  0.61063867  0.74534622  0.50921959    -0.39390
N604        N  0.82991227  0.69360608  0.48107290    -0.39390
N605        N  0.65135493  0.70140235  0.62842886    -0.38830
N606        N  0.78813346  0.73473809  0.36158997    -0.38830
loop_ 
_geom_bond_atom_site_label_1 
_geom_bond_atom_site_label_2 
_geom_bond_distance 
_geom_bond_site_symmetry_2 
_ccdc_geom_bond_type 
N1            N2   1.317       .  A
N1            N7   1.312       .  A
N1          Mn30   2.186       .  S
N2            C9   1.352       .  A
N3            N5   1.317       .  A
N3            N4   1.321       .  A
N3          Mn19   2.200       .  S
N4           C10   1.351       .  A
N5            N6   1.322       .  A
N5          Mn30   2.213       .  S
N6           C10   1.354       .  A
N7            N8   1.319       .  A
N7          Mn19   2.196       .  S
N8            C9   1.356       .  A
C9          C523   1.497       .  S
C10         C582   1.482       .  S
N11          N17   1.315       .  A
N11          N12   1.324       .  A
N11         Mn41   2.222       .  S
N12          C20   1.360       .  A
N13          N14   1.318       .  A
N13          N15   1.315       .  A
N13         Mn19   2.194       .  S
N14          C21   1.351       .  A
N15          N16   1.323       .  A
N15         Mn41   2.221       .  S
N16          C21   1.359       .  A
N17          N18   1.317       .  A
N17         Mn19   2.196       .  S
N18          C20   1.353       .  A
Mn19        Cl43   2.539       .  S
C20         C565   1.513       .  S
C21         C596   1.505       .  S
N22          N23   1.320       .  A
N22          N28   1.317       .  A
N22         Mn30   2.200       .  S
N23          C31   1.352       .  A
N24          N26   1.315       .  A
N24          N25   1.319   1_655  A
N24         Mn42   2.194       .  S
N25          C32   1.351       .  A
N26          N27   1.320       .  A
N26         Mn30   2.196       .  S
N27          C32   1.350   1_655  A
N28          N29   1.322       .  A
N28         Mn42   2.206       .  S
N29          C31   1.353       .  A
Mn30        Cl43   2.548       .  S
C31         C498   1.489       .  S
C32         C554   1.472       .  S
N33          N34   1.327       .  A
N33          N39   1.317       .  A
N33         Mn41   2.234       .  S
N34          C44   1.359       .  A
N35          N36   1.318       .  A
N35          N37   1.317       .  A
N35         Mn42   2.196       .  S
N36          C45   1.351       .  A
N37          N38   1.322       .  A
N37         Mn41   2.212       .  S
N38          C45   1.355       .  A
N39          N40   1.320       .  A
N39         Mn42   2.202       .  S
N40          C44   1.350       .  A
Mn41        Cl43   2.562       .  S
Mn42        Cl43   2.539       .  S
C44         C512   1.493       .  S
C45         C537   1.487       .  S
N46          N47   1.312       .  A
N46          N52   1.314       .  A
N46         Mn75   2.172       .  S
N47          C54   1.345       .  A
N48          N50   1.311       .  A
N48          N49   1.323   1_655  A
N48         Mn64   2.202       .  S
N49          C55   1.359       .  A
N50          N51   1.314       .  A
N50         Mn75   2.183       .  S
N51          C55   1.351   1_655  A
N52          N53   1.325       .  A
N52         Mn64   2.212       .  S
N53          C54   1.359       .  A
C54         C425   1.497       .  S
C55         C470   1.506       .  S
N56          N62   1.315       .  A
N56          N57   1.326       .  A
N56         Mn86   2.231       .  S
N57          C65   1.363       .  A
N58          N59   1.319       .  A
N58          N60   1.317       .  A
N58         Mn64   2.211       .  S
N59          C66   1.356       .  A
N60          N61   1.320       .  A
N60         Mn86   2.205       .  S
N61          C66   1.354       .  A
N62          N63   1.314       .  A
N62         Mn64   2.184       .  S
N63          C65   1.348       .  A
Mn64        Cl88   2.556       .  S
C65         C411   1.508       .  S
C66         C540   1.505       .  S
N67          N68   1.318       .  A
N67          N73   1.313       .  A
N67         Mn75   2.184       .  S
N68          C76   1.348       .  A
N69          N71   1.315       .  A
N69          N70   1.325       .  A
N69         Mn87   2.211       .  S
N70          C77   1.357       .  A
N71          N72   1.315       .  A
N71         Mn75   2.178       .  S
N72          C77   1.347       .  A
N73          N74   1.319       .  A
N73         Mn87   2.191       .  S
N74          C76   1.352       .  A
Mn75        Cl88   2.508       .  S
C76         C526   1.470   1_545  S
C77         C453   1.489       .  S
N78          N79   1.320       .  A
N78          N84   1.318       .  A
N78         Mn86   2.217       .  S
N79          C89   1.354       .  A
N80          N81   1.316       .  A
N80          N82   1.317       .  A
N80         Mn87   2.189       .  S
N81          C90   1.347       .  A
N82          N83   1.326       .  A
N82         Mn86   2.225       .  S
N83          C90   1.358       .  A
N84          N85   1.318       .  A
N84         Mn87   2.187       .  S
N85          C89   1.351       .  A
Mn86        Cl88   2.548       .  S
Mn87        Cl88   2.555       .  S
C89         C484   1.482       .  S
C90         C439   1.486       .  S
N91          N92   1.327       .  A
N91          N97   1.316       .  A
N91        Mn120   2.233       .  S
N92          C99   1.360       .  A
N93          N95   1.314       .  A
N93          N94   1.318       .  A
N93        Mn109   2.188       .  S
N94         C100   1.353       .  A
N95          N96   1.322       .  A
N95        Mn120   2.213       .  S
N96         C100   1.357       .  A
N97          N98   1.319       .  A
N97        Mn109   2.197       .  S
N98          C99   1.349       .  A
C99         C509   1.491       .  S
C100        C369   1.498       .  S
N101        N107   1.318       .  A
N101        N102   1.322       .  A
N101       Mn131   2.217       .  S
N102        C110   1.355       .  A
N103        N104   1.317       .  A
N103        N105   1.314       .  A
N103       Mn109   2.180       .  S
N104        C111   1.351       .  A
N105        N106   1.320       .  A
N105       Mn131   2.202       .  S
N106        C111   1.354       .  A
N107        N108   1.321       .  A
N107       Mn109   2.201       .  S
N108        C110   1.351       .  A
Mn109      Cl133   2.541       .  S
C110        C495   1.488       .  S
C111        C400   1.485   1_455  S
N112        N113   1.315       .  A
N112        N118   1.316       .  A
N112       Mn120   2.203       .  S
N113        C121   1.352       .  A
N114        N116   1.316       .  A
N114        N115   1.313       .  A
N114       Mn132   2.180       .  S
N115        C122   1.346       .  A
N116        N117   1.326       .  A
N116       Mn120   2.214       .  S
N117        C122   1.357       .  A
N118        N119   1.323       .  A
N118       Mn132   2.210       .  S
N119        C121   1.358       .  A
Mn120      Cl133   2.556       .  S
C121        C386   1.509       .  S
C122        C344   1.482       .  S
N123        N124   1.321       .  A
N123        N129   1.316       .  A
N123       Mn131   2.204       .  S
N124        C134   1.352   1_565  A
N125        N126   1.323       .  A
N125        N127   1.318       .  A
N125       Mn132   2.205       .  S
N126        C135   1.353       .  A
N127        N128   1.322       .  A
N127       Mn131   2.218       .  S
N128        C135   1.354       .  A
N129        N130   1.321       .  A
N129       Mn132   2.207       .  S
N130        C134   1.353   1_565  A
Mn131      Cl133   2.547       .  S
Mn132      Cl133   2.545       .  S
C134        C358   1.478       .  S
C135        C327   1.496       .  S
N136        N137   1.323       .  A
N136        N142   1.319       .  A
N136       Mn165   2.231       .  S
N137        C144   1.355       .  A
N138        N140   1.317       .  A
N138        N139   1.314       .  A
N138       Mn154   2.184       .  S
N139        C145   1.346       .  A
N140        N141   1.327       .  A
N140       Mn165   2.225       .  S
N141        C145   1.359       .  A
N142        N143   1.320       .  A
N142       Mn154   2.198       .  S
N143        C144   1.351       .  A
C144        C568   1.484       .  S
C145        C316   1.484       .  S
N146        N152   1.311       .  A
N146        N147   1.314       .  A
N146       Mn176   2.177       .  S
N147        C155   1.350       .  A
N148        N149   1.325       .  A
N148        N150   1.315       .  A
N148       Mn154   2.215       .  S
N149        C156   1.357       .  A
N150        N151   1.316       .  A
N150       Mn176   2.180       .  S
N151        C156   1.348       .  A
N152        N153   1.322       .  A
N152       Mn154   2.205       .  S
N153        C155   1.359       .  A
Mn154      Cl178   2.557       .  S
C155        C467   1.505       .  S
C156        C302   1.489       .  S
N157        N158   1.329       .  A
N157        N163   1.316       .  A
N157       Mn165   2.246       .  S
N158        C166   1.365       .  A
N159        N161   1.317       .  A
N159        N160   1.319       .  A
N159       Mn177   2.201       .  S
N160        C167   1.353       .  A
N161        N162   1.320       .  A
N161       Mn165   2.206       .  S
N162        C167   1.353       .  A
N163        N164   1.315       .  A
N163       Mn177   2.192       .  S
N164        C166   1.349       .  A
Mn165      Cl178   2.551       .  S
C166        C330   1.518       .  S
C167        C481   1.488       .  S
N168        N169   1.310       .  A
N168        N174   1.313       .  A
N168       Mn176   2.174       .  S
N169        C179   1.346       .  A
N170        N171   1.323       .  A
N170        N172   1.312       .  A
N170       Mn177   2.203       .  S
N171        C180   1.358       .  A
N172        N173   1.315       .  A
N172       Mn176   2.180       .  S
N173        C180   1.349       .  A
N174        N175   1.326       .  A
N174       Mn177   2.210       .  S
N175        C179   1.360       .  A
Mn176      Cl178   2.510       .  S
Mn177      Cl178   2.558       .  S
C179        C341   1.506       .  S
C180        C551   1.491   1_545  S
N181        N182   1.311       .  A
N181        N187   1.312       .  A
N181       Mn210   2.168       .  S
N182        C189   1.346       .  A
N183        N185   1.315       .  A
N183        N184   1.320       .  A
N183       Mn199   2.187       .  S
N184        C190   1.351       .  A
N185        N186   1.321       .  A
N185       Mn210   2.208       .  S
N186        C190   1.354       .  A
N187        N188   1.325       .  A
N187       Mn199   2.207       .  S
N188        C189   1.360       .  A
C189        C271   1.492   1_455  S
C190        C414   1.486       .  S
N191        N197   1.315       .  A
N191        N192   1.321       .  A
N191       Mn221   2.206       .  S
N192        C200   1.356       .  A
N193        N194   1.315       .  A
N193        N195   1.316       .  A
N193       Mn199   2.185       .  S
N194        C201   1.347       .  A
N195        N196   1.323       .  A
N195       Mn221   2.208       .  S
N196        C201   1.354       .  A
N197        N198   1.318       .  A
N197       Mn199   2.197       .  S
N198        C200   1.354       .  A
Mn199      Cl223   2.557       .  S
C200        C372   1.499       .  S
C201        C428   1.473       .  S
N202        N203   1.313       .  A
N202        N208   1.314       .  A
N202       Mn210   2.182       .  S
N203        C211   1.348       .  A
N204        N206   1.314       .  A
N204        N205   1.322       .  A
N204       Mn222   2.200       .  S
N205        C212   1.354       .  A
N206        N207   1.318       .  A
N206       Mn210   2.193       .  S
N207        C212   1.349       .  A
N208        N209   1.326       .  A
N208       Mn222   2.217       .  S
N209        C211   1.360       .  A
Mn210      Cl223   2.514       .  S
C211        C313   1.510       .  S
C212        C355   1.475       .  S
N213        N214   1.324       .  A
N213        N219   1.318       .  A
N213       Mn221   2.220       .  S
N214        C224   1.355       .  A
N215        N216   1.321       .  A
N215        N217   1.317       .  A
N215       Mn222   2.200       .  S
N216        C225   1.354       .  A
N217        N218   1.315       .  A
N217       Mn221   2.193       .  S
N218        C225   1.350       .  A
N219        N220   1.319       .  A
N219       Mn222   2.202       .  S
N220        C224   1.349       .  A
Mn221      Cl223   2.534       .  S
Mn222      Cl223   2.564       .  S
C224        C299   1.481       .  S
C225        C285   1.483       .  S
N226        N227   1.317       .  A
N226        N232   1.312       .  A
N226       Mn255   2.182       .  S
N227        C234   1.351       .  A
N228        N230   1.315       .  A
N228        N229   1.325       .  A
N228       Mn244   2.212       .  S
N229        C235   1.358       .  A
N230        N231   1.316       .  A
N230       Mn255   2.195       .  S
N231        C235   1.351       .  A
N232        N233   1.319       .  A
N232       Mn244   2.188       .  S
N233        C234   1.353       .  A
C234        C397   1.482       .  S
C235        C579   1.503       .  S
N236        N242   1.315       .  A
N236        N237   1.314       .  A
N236       Mn266   2.188       .  S
N237        C245   1.348       .  A
N238        N239   1.316       .  A
N238        N240   1.314       .  A
N238       Mn244   2.186       .  S
N239        C246   1.350       .  A
N240        N241   1.325       .  A
N240       Mn266   2.226       .  S
N241        C246   1.362       .  A
N242        N243   1.323       .  A
N242       Mn244   2.198       .  S
N243        C245   1.356       .  A
Mn244      Cl268   2.569       .  S
C245        C288   1.484       .  S
C246        C593   1.507       .  S
N247        N248   1.314       .  A
N247        N253   1.316       .  A
N247       Mn255   2.188       .  S
N248        C256   1.347       .  A
N249        N251   1.313       .  A
N249        N250   1.320       .  A
N249       Mn267   2.188       .  S
N250        C257   1.355       .  A
N251        N252   1.315       .  A
N251       Mn255   2.193       .  S
N252        C257   1.352       .  A
N253        N254   1.327       .  A
N253       Mn267   2.218       .  S
N254        C256   1.360       .  A
Mn255      Cl268   2.502       .  S
C256        C442   1.511       .  S
C257        C274   1.491   1_565  S
N258        N259   1.322       .  A
N258        N264   1.316       .  A
N258       Mn266   2.198       .  S
N259        C269   1.353       .  A
N260        N261   1.325       .  A
N260        N262   1.315       .  A
N260       Mn267   2.215       .  S
N261        C270   1.361       .  A
N262        N263   1.313       .  A
N262       Mn266   2.194       .  S
N263        C270   1.349       .  A
N264        N265   1.319       .  A
N264       Mn267   2.199       .  S
N265        C269   1.349       .  A
Mn266      Cl268   2.517       .  S
Mn267      Cl268   2.574       .  S
C269        C456   1.475       .  S
C270        C383   1.509       .  S
C271        C272   1.414       .  A
C271        C276   1.421       .  A
C272        C273   1.414       .  A
C272        C277   1.451       .  S
C273        C274   1.417       .  A
C273        C280   1.452       .  S
C274        C275   1.417       .  A
C275        C276   1.405       .  A
C275        C278   1.455       .  S
C276        C279   1.455       .  S
C277        N284   1.157       .  T
C278        N283   1.158   1_545  T
C279        N281   1.158   1_655  T
C280        N282   1.158       .  T
C285        C286   1.414       .  A
C285        C290   1.415       .  A
C286        C287   1.413       .  A
C286        C291   1.451       .  S
C287        C288   1.413       .  A
C287        C294   1.451       .  S
C288        C289   1.417       .  A
C289        C290   1.404       .  A
C289        C292   1.454       .  S
C290        C293   1.454       .  S
C291        N298   1.157       .  T
C292        N297   1.158       .  T
C293        N295   1.158       .  T
C294        N296   1.157       .  T
C299        C300   1.407       .  A
C299        C304   1.413       .  A
C300        C301   1.410       .  A
C300        C305   1.452       .  S
C301        C302   1.419       .  A
C301        C308   1.453       .  S
C302        C303   1.412       .  A
C303        C304   1.415       .  A
C303        C306   1.450       .  S
C304        C307   1.450       .  S
C305        N312   1.157       .  T
C306        N311   1.157       .  T
C307        N309   1.157       .  T
C308        N310   1.158       .  T
C313        C314   1.428       .  A
C313        C318   1.424       .  A
C314        C315   1.407   1_554  A
C314        C319   1.453       .  S
C315        C316   1.408       .  A
C315        C322   1.456       .  S
C316        C317   1.410   1_556  A
C317        C318   1.419       .  A
C317        C320   1.451       .  S
C318        C321   1.450       .  S
C319        N326   1.158       .  T
C320        N325   1.157       .  T
C321        N323   1.158       .  T
C322        N324   1.157       .  T
C327        C328   1.406   1_554  A
C327        C332   1.415   1_565  A
C328        C329   1.413       .  A
C328        C333   1.452       .  S
C329        C330   1.429   1_565  A
C329        C336   1.452       .  S
C330        C331   1.422   1_556  A
C331        C332   1.420       .  A
C331        C334   1.450       .  S
C332        C335   1.451       .  S
C333        N340   1.157       .  T
C334        N339   1.158       .  T
C335        N337   1.158       .  T
C336        N338   1.158       .  T
C341        C342   1.423       .  A
C341        C346   1.427       .  A
C342        C343   1.418   1_545  A
C342        C347   1.450       .  S
C343        C344   1.410       .  A
C343        C350   1.451       .  S
C344        C345   1.407   1_565  A
C345        C346   1.404       .  A
C345        C348   1.453       .  S
C346        C349   1.455       .  S
C347        N354   1.158       .  T
C348        N353   1.156       .  T
C349        N351   1.158       .  T
C350        N352   1.157       .  T
C355        C356   1.410       .  A
C355        C360   1.410       .  A
C356        C357   1.407       .  A
C356        C361   1.452       .  S
C357        C358   1.411       .  A
C357        C364   1.450       .  S
C358        C359   1.412       .  A
C359        C360   1.413       .  A
C359        C362   1.449       .  S
C360        C363   1.451       .  S
C361        N368   1.157       .  T
C362        N367   1.158   1_545  T
C363        N365   1.157       .  T
C364        N366   1.157       .  T
C369        C370   1.417       .  A
C369        C374   1.414       .  A
C370        C371   1.412       .  A
C370        C375   1.452       .  S
C371        C372   1.420       .  A
C371        C378   1.453       .  S
C372        C373   1.418       .  A
C373        C374   1.413       .  A
C373        C376   1.453       .  S
C374        C377   1.450       .  S
C375        N382   1.158       .  T
C376        N381   1.158       .  T
C377        N379   1.157       .  T
C378        N380   1.158       .  T
C383        C384   1.418       .  A
C383        C388   1.421       .  A
C384        C385   1.418       .  A
C384        C389   1.450       .  S
C385        C386   1.422       .  A
C385        C392   1.452       .  S
C386        C387   1.422       .  A
C387        C388   1.408       .  A
C387        C390   1.454       .  S
C388        C391   1.455       .  S
C389        N396   1.157       .  T
C390        N395   1.158       .  T
C391        N393   1.158       .  T
C392        N394   1.158       .  T
C397        C398   1.414       .  A
C397        C402   1.414       .  A
C398        C399   1.408       .  A
C398        C403   1.453       .  S
C399        C400   1.416       .  A
C399        C406   1.452       .  S
C400        C401   1.413       .  A
C401        C402   1.409       .  A
C401        C404   1.451       .  S
C402        C405   1.453       .  S
C403        N410   1.158       .  T
C404        N409   1.157   1_655  T
C405        N407   1.158       .  T
C406        N408   1.157       .  T
C411        C412   1.426   1_655  A
C411        C416   1.419   1_556  A
C412        C413   1.410   1_556  A
C412        C417   1.451       .  S
C413        C414   1.406       .  A
C413        C420   1.453   1_554  S
C414        C415   1.415   1_455  A
C415        C416   1.415       .  A
C415        C418   1.451       .  S
C416        C419   1.450       .  S
C417        N424   1.158       .  T
C418        N423   1.157       .  T
C419        N421   1.158       .  T
C420        N422   1.157       .  T
C425        C426   1.427       .  A
C425        C430   1.418   1_655  A
C426        C427   1.405   1_655  A
C426        C431   1.453       .  S
C427        C428   1.404       .  A
C427        C434   1.455       .  S
C428        C429   1.409       .  A
C429        C430   1.414       .  A
C429        C432   1.450       .  S
C430        C433   1.451   1_455  S
C431        N438   1.158       .  T
C432        N437   1.157       .  T
C433        N435   1.158       .  T
C434        N436   1.157       .  T
C439        C440   1.409       .  A
C439        C444   1.408       .  A
C440        C441   1.418   1_556  A
C440        C445   1.451       .  S
C441        C442   1.423   1_545  A
C441        C448   1.449       .  S
C442        C443   1.429       .  A
C443        C444   1.409   1_564  A
C443        C446   1.454       .  S
C444        C447   1.454       .  S
C445        N452   1.157       .  T
C446        N451   1.158       .  T
C447        N449   1.157       .  T
C448        N450   1.157       .  T
C453        C454   1.413       .  A
C453        C458   1.422       .  A
C454        C455   1.414   1_545  A
C454        C459   1.450       .  S
C455        C456   1.411       .  A
C455        C462   1.450       .  S
C456        C457   1.405       .  A
C457        C458   1.407   1_565  A
C457        C460   1.453       .  S
C458        C461   1.453       .  S
C459        N466   1.157       .  T
C460        N465   1.157       .  T
C461        N463   1.158       .  T
C462        N464   1.157       .  T
C467        C468   1.422       .  A
C467        C472   1.418       .  A
C468        C469   1.411       .  A
C468        C473   1.454       .  S
C469        C470   1.421       .  A
C469        C476   1.455       .  S
C470        C471   1.418       .  A
C471        C472   1.414       .  A
C471        C474   1.448       .  S
C472        C475   1.452       .  S
C473        N480   1.158       .  T
C474        N479   1.156       .  T
C475        N477   1.158       .  T
C476        N478   1.158   1_455  T
C481        C482   1.417       .  A
C481        C486   1.415       .  A
C482        C483   1.410       .  A
C482        C487   1.452       .  S
C483        C484   1.414       .  A
C483        C490   1.452       .  S
C484        C485   1.408       .  A
C485        C486   1.408       .  A
C485        C488   1.451       .  S
C486        C489   1.447       .  S
C487        N494   1.157       .  T
C488        N493   1.157       .  T
C489        N491   1.156       .  T
C490        N492   1.157       .  T
C495        C496   1.410   1_554  A
C495        C500   1.416   1_455  A
C496        C497   1.413       .  A
C496        C501   1.450       .  S
C497        C498   1.418   1_455  A
C497        C504   1.450       .  S
C498        C499   1.411   1_556  A
C499        C500   1.411       .  A
C499        C502   1.452       .  S
C500        C503   1.450       .  S
C501        N508   1.157       .  T
C502        N507   1.157       .  T
C503        N505   1.157       .  T
C504        N506   1.157       .  T
C509        C510   1.415       .  A
C509        C514   1.411       .  A
C510        C511   1.416   1_455  A
C510        C515   1.451       .  S
C511        C512   1.413       .  A
C511        C518   1.450       .  S
C512        C513   1.414   1_655  A
C513        C514   1.415       .  A
C513        C516   1.447       .  S
C514        C517   1.451       .  S
C515        N522   1.157       .  T
C516        N521   1.156   1_455  T
C517        N519   1.157       .  T
C518        N520   1.157       .  T
C523        C524   1.422       .  A
C523        C528   1.425       .  A
C524        C525   1.409       .  A
C524        C529   1.451       .  S
C525        C526   1.406       .  A
C525        C532   1.453       .  S
C526        C527   1.404       .  A
C527        C528   1.409       .  A
C527        C530   1.453       .  S
C528        C531   1.452       .  S
C529        N536   1.157       .  T
C530        N535   1.157   1_565  T
C531        N533   1.158       .  T
C532        N534   1.157       .  T
C537        C538   1.410       .  A
C537        C542   1.412       .  A
C538        C539   1.414       .  A
C538        C543   1.453       .  S
C539        C540   1.424       .  A
C539        C546   1.451       .  S
C540        C541   1.422       .  A
C541        C542   1.411       .  A
C541        C544   1.452       .  S
C542        C545   1.453       .  S
C543        N550   1.158       .  T
C544        N549   1.158       .  T
C545        N547   1.157       .  T
C546        N548   1.158       .  T
C551        C552   1.416       .  A
C551        C556   1.422       .  A
C552        C553   1.410       .  A
C552        C557   1.450       .  S
C553        C554   1.408       .  A
C553        C560   1.452       .  S
C554        C555   1.404       .  A
C555        C556   1.408       .  A
C555        C558   1.451       .  S
C556        C559   1.452       .  S
C557        N564   1.157       .  T
C558        N563   1.157   1_455  T
C559        N561   1.158       .  T
C560        N562   1.157       .  T
C565        C566   1.429       .  A
C565        C570   1.426       .  A
C566        C567   1.412       .  A
C566        C571   1.452       .  S
C567        C568   1.406       .  A
C567        C574   1.454       .  S
C568        C569   1.406       .  A
C569        C570   1.416       .  A
C569        C572   1.451       .  S
C570        C573   1.450       .  S
C571        N578   1.158       .  T
C572        N577   1.157       .  T
C573        N575   1.158       .  T
C574        N576   1.157       .  T
C579        C580   1.420   1_554  A
C579        C584   1.423       .  A
C580        C581   1.408       .  A
C580        C585   1.453       .  S
C581        C582   1.410       .  A
C581        C588   1.453       .  S
C582        C583   1.407       .  A
C583        C584   1.417   1_556  A
C583        C586   1.450       .  S
C584        C587   1.449       .  S
C585        N592   1.158       .  T
C586        N591   1.157       .  T
C587        N589   1.158       .  T
C588        N590   1.157       .  T
C593        C594   1.424       .  A
C593        C598   1.417       .  A
C594        C595   1.414       .  A
C594        C599   1.452       .  S
C595        C596   1.415       .  A
C595        C602   1.453       .  S
C596        C597   1.422       .  A
C597        C598   1.416       .  A
C597        C600   1.452       .  S
C598        C601   1.452       .  S
C599        N606   1.157       .  T
C600        N605   1.158       .  T
C601        N603   1.158       .  T
C602        N604   1.158       .  T
