geometry optimzed in LAMMPS
_audit_creation_date              2020-11-30 
_audit_creation_method            'lammps2cif' 
_symmetry_space_group_name_H-M    'P1' 
_symmetry_Int_Tables_number       1 
_symmetry_cell_setting            triclinic 
loop_ 
_symmetry_equiv_pos_as_xyz 
  x,y,z 
_cell_length_a                    33.57102561 
_cell_length_b                    33.71366901392581 
_cell_length_c                    33.52163601545381 
_cell_angle_alpha                 90.08010364244491 
_cell_angle_beta                  90.02976568880727 
_cell_angle_gamma                 89.90818830837708 
loop_ 
_atom_site_label 
_atom_site_type_symbol 
_atom_site_fract_x 
_atom_site_fract_y 
_atom_site_fract_z 
_atom_site_charge 
N1          N  0.59649405  0.52161408  0.04947640    -0.07000
N2          N  0.61888921  0.53431211  0.07924357    -0.59100
N3          N  0.59351011  0.48207069  0.95740152    -0.06700
N4          N  0.61283152  0.46657692  0.92687306    -0.61200
N5          N  0.59605564  0.52101260  0.95680675    -0.06300
N6          N  0.61760368  0.53254660  0.92579470    -0.59100
N7          N  0.59430153  0.48262762  0.04980090    -0.06000
N8          N  0.61511192  0.46810349  0.07983818    -0.61600
C9          C  0.62989894  0.50065572  0.09825904     0.95200
C10         C  0.62762681  0.49820805  0.90701176     0.95000
N11         N  0.48622540  0.42180668  0.95783420    -0.07200
N12         N  0.47129647  0.40094436  0.92808932    -0.59700
N13         N  0.52570525  0.41791431  0.05003067    -0.05300
N14         N  0.53794743  0.39260143  0.07769510    -0.60900
N15         N  0.48658139  0.42042735  0.05012281    -0.07200
N16         N  0.47153106  0.39729943  0.07809196    -0.60000
N17         N  0.52527384  0.41917239  0.95801428    -0.04900
N18         N  0.53762533  0.39625705  0.92848465    -0.61000
Mn19       Mn  0.56075356  0.44964787  0.00399426     1.18400
C20         C  0.50365399  0.38535728  0.90963868     0.97300
C21         C  0.50378874  0.38037944  0.09544661     0.97900
N22         N  0.53336555  0.59146936  0.95822814    -0.07200
N23         N  0.54797882  0.61530988  0.93066192    -0.63500
N24         N  0.49443223  0.59258164  0.05031631    -0.06000
N25         N  0.48091153  0.61574645  0.07900367    -0.64200
N26         N  0.53364219  0.59207406  0.05017859    -0.06700
N27         N  0.54753455  0.61548739  0.07881052    -0.63800
N28         N  0.49421091  0.59313919  0.95840371    -0.05600
N29         N  0.48151843  0.61806327  0.93076158    -0.64500
Mn30       Mn  0.56613216  0.55735232  0.00364753     1.10700
C31         C  0.51537945  0.63171004  0.91355863     0.98500
C32         C  0.51415023  0.62957121  0.09690514     0.98600
N33         N  0.42401538  0.49037579  0.05069402    -0.06700
N34         N  0.40170270  0.47745925  0.08031701    -0.62100
N35         N  0.42485607  0.52996854  0.95885167    -0.06100
N36         N  0.40288355  0.54511238  0.92996266    -0.58800
N37         N  0.42295400  0.49103029  0.95836489    -0.07400
N38         N  0.39966800  0.47901807  0.92890239    -0.61700
N39         N  0.42565292  0.52934377  0.05103918    -0.06400
N40         N  0.40440588  0.54364644  0.08101464    -0.58900
Mn41       Mn  0.45402537  0.45516168  0.00424124     1.20200
Mn42       Mn  0.45899975  0.56199023  0.00462772     1.10100
Cl43       Cl  0.50998858  0.50605029  0.00420846    -0.86800
C44         C  0.38954209  0.51093585  0.09909745     0.95500
C45         C  0.38730383  0.51312887  0.91127615     0.95300
C46         C  0.25778354  0.49093152  0.20113808     0.79300
N47         N  0.23416200  0.47230678  0.17418327    -0.79000
C48         C  0.19667935  0.46140538  0.18391519     0.81800
N49         N  0.18262443  0.46953938  0.22083566    -0.78900
C50         C  0.20578318  0.48829563  0.24808627     0.81900
N51         N  0.24360679  0.49935581  0.23831593    -0.80600
C52         C  0.76446164  0.47591632  0.19653832     0.79300
N53         N  0.77611267  0.48197080  0.23497487    -0.79000
C54         C  0.81245411  0.46860088  0.24719132     0.81800
N55         N  0.83700290  0.45006159  0.22085580    -0.78900
C56         C  0.82568683  0.44482495  0.18240726     0.81900
N57         N  0.78935791  0.45765589  0.17052446    -0.80600
C58         C  0.20502565  0.50621297  0.75622575     0.79300
N59         N  0.17942364  0.48816729  0.78171114    -0.79000
C60         C  0.19123747  0.47821999  0.81896619     0.81800
N61         N  0.22900313  0.48564184  0.83054992    -0.78900
C62         C  0.25507155  0.50339188  0.80557601     0.81900
N63         N  0.24326733  0.51387355  0.76801102    -0.80600
C64         C  0.81355758  0.48549782  0.75814258     0.79300
N65         N  0.77488289  0.49139869  0.76950953    -0.79000
C66         C  0.76249742  0.47805877  0.80588271     0.81800
N67         N  0.78878799  0.45971912  0.83039450    -0.78900
C68         C  0.82699879  0.45389246  0.81924932     0.81900
N69         N  0.83930641  0.46659914  0.78301694    -0.80600
N70         N  0.01279562  0.38652912  0.93628052    -0.37500
N71         N  0.95353409  0.38047379  0.99909134    -0.58000
N72         N  0.01376551  0.38501148  0.06086500    -0.37500
N73         N  0.07268474  0.39294283  0.99807554    -0.58000
C74         C  0.97901908  0.39786228  0.91760363     0.26100
C75         C  0.04324130  0.40465181  0.91731956     0.26100
C76         C  0.98036446  0.39461700  0.08133520     0.26100
C77         C  0.04481644  0.40159270  0.08051845     0.26100
C78         C  0.93071911  0.37276955  0.96685721     0.34700
C79         C  0.93102899  0.37221827  0.03135889     0.34700
C80         C  0.09600113  0.38889768  0.96562709     0.34700
C81         C  0.09655372  0.38794741  0.02998671     0.34700
C82         C  0.98814818  0.42300122  0.88615306    -0.22800
C83         C  0.02872828  0.42738875  0.88606447    -0.22800
C84         C  0.99040515  0.41664701  0.11481522    -0.22800
C85         C  0.03105241  0.42116152  0.11422757    -0.22800
C86         C  0.89372282  0.35888623  0.97860592    -0.23800
C87         C  0.89388823  0.35861860  0.01962883    -0.23800
C88         C  0.13485296  0.38055954  0.97682276    -0.23800
C89         C  0.13517479  0.37974318  0.01782469    -0.23800
C90         C  0.94018329  0.38599240  0.92816483    -0.19200
C91         C  0.08382273  0.40060675  0.92727720    -0.19200
C92         C  0.08523340  0.39910545  0.06882345    -0.19200
C93         C  0.94108843  0.38413188  0.07039416    -0.19200
H94         H  0.96770248  0.43735683  0.86577969     0.13700
H95         H  0.04550857  0.44570840  0.86562092     0.13700
H96         H  0.97049944  0.42893500  0.13701782     0.13700
H97         H  0.04831863  0.43765594  0.13585849     0.13700
H98         H  0.86854356  0.35207942  0.95962475     0.12000
H99         H  0.86889373  0.35144550  0.03867220     0.12000
H100        H  0.16056453  0.37779851  0.95754048     0.12000
H101        H  0.16123736  0.37636771  0.03654646     0.12000
H102        H  0.01503011  0.36651259  0.95997676     0.25300
H103        H  0.01537384  0.36741060  0.03549681     0.25300
N104        N  0.05193710  0.52493381  0.41555140    -0.07000
N105        N  0.08077222  0.53843168  0.39253075    -0.59100
N106        N  0.96148958  0.48348605  0.41786797    -0.06700
N107        N  0.93253935  0.46751454  0.39674297    -0.61200
N108        N  0.96002952  0.52241689  0.41561546    -0.06300
N109        N  0.93007296  0.53350586  0.39246181    -0.59100
N110        N  0.05339197  0.48599158  0.41750780    -0.06000
N111        N  0.08336064  0.47239781  0.39589657    -0.61600
C112        C  0.10043496  0.50545845  0.38051737     0.95200
C113        C  0.91285564  0.49888461  0.38107927     0.95000
N114        N  0.96228911  0.42276105  0.52560391    -0.07200
N115        N  0.93210956  0.40243758  0.54037082    -0.59700
N116        N  0.05519710  0.42232824  0.48652539    -0.05300
N117        N  0.08539926  0.40020459  0.47424329    -0.60900
N118        N  0.05497052  0.42450298  0.52565322    -0.07200
N119        N  0.08501537  0.40414391  0.54067520    -0.60000
N120        N  0.96241621  0.42031651  0.48646018    -0.04900
N121        N  0.93235476  0.39807653  0.47397825    -0.61000
Mn122      Mn  0.00826551  0.45202151  0.45117388     1.18400
C123        C  0.91330654  0.38720654  0.50795190     0.97300
C124        C  0.10405702  0.38913080  0.50837258     0.97900
N125        N  0.95822286  0.59154958  0.47981258    -0.07200
N126        N  0.92689909  0.61084288  0.46567617    -0.63500
N127        N  0.05156978  0.59433770  0.51870627    -0.06000
N128        N  0.08299945  0.61383688  0.53194868    -0.64200
N129        N  0.05154127  0.59318070  0.47947416    -0.06700
N130        N  0.08303324  0.61213457  0.46533339    -0.63800
N131        N  0.95864779  0.59321230  0.51902128    -0.05600
N132        N  0.92768709  0.61366999  0.53214545    -0.64500
Mn133      Mn  0.00527141  0.55923597  0.44652867     1.10700
C134        C  0.90791669  0.62463438  0.49860546     0.98500
C135        C  0.10266665  0.62457601  0.49846836     0.98600
N136        N  0.05416666  0.49318384  0.58866949    -0.06700
N137        N  0.08505728  0.48094144  0.60978973    -0.62100
N138        N  0.96072157  0.53031923  0.58844780    -0.06100
N139        N  0.93068357  0.54379907  0.61019269    -0.58800
N140        N  0.96167376  0.49133020  0.58928372    -0.07400
N141        N  0.93229243  0.47749857  0.61131715    -0.61700
N142        N  0.05322975  0.53215422  0.58750419    -0.06400
N143        N  0.08344044  0.54713971  0.60788772    -0.58900
Mn144      Mn  0.00825589  0.45709928  0.55821782     1.20200
Mn145      Mn  0.00591873  0.56367917  0.55431928     1.10100
Cl146      Cl  0.00680941  0.50805527  0.50246761    -0.86800
C147        C  0.10341697  0.51483522  0.62135390     0.95500
C148        C  0.91285963  0.51040159  0.62385446     0.95300
C149        C  0.47678619  0.80595434  0.25382713     0.79300
N150        N  0.49257391  0.77204509  0.23787598    -0.79000
C151        C  0.48359165  0.76192434  0.19933473     0.81800
N152        N  0.45979374  0.78594224  0.17718785    -0.78900
C153        C  0.44441563  0.81956164  0.19309848     0.81900
N154        N  0.45328254  0.82946967  0.23109483    -0.80600
C155        C  0.47444603  0.24633140  0.19766113     0.79300
N156        N  0.45146395  0.22011705  0.17717274    -0.79000
C157        C  0.43797830  0.18665130  0.19506554     0.81800
N158        N  0.44752332  0.17954682  0.23357918    -0.78900
C159        C  0.47075167  0.20500494  0.25438486     0.81900
N160        N  0.48447399  0.23864329  0.23641623    -0.80600
C161        C  0.48724011  0.24643558  0.81491625     0.79300
N162        N  0.47041744  0.22030494  0.84056740    -0.79000
C163        C  0.46412447  0.18224474  0.82960302     0.81800
N164        N  0.47382882  0.17045334  0.79231856    -0.78900
C165        C  0.49060413  0.19619137  0.76628432     0.81900
N166        N  0.49762852  0.23444992  0.77747605    -0.80600
C167        C  0.50027697  0.81792874  0.76495281     0.79300
N168        N  0.51050345  0.78113695  0.77850453    -0.79000
C169        C  0.49914701  0.76986462  0.81592027     0.81800
N170        N  0.47767839  0.79507044  0.83905028    -0.78900
C171        C  0.46768199  0.83152407  0.82546894     0.81900
N172        N  0.47915669  0.84283934  0.78861835    -0.80600
N173        N  0.37540766  0.06614116  0.01253064    -0.37500
N174        N  0.38229484  0.00594292  0.95124242    -0.58000
N175        N  0.37864821  0.94205207  0.00854260    -0.37500
N176        N  0.37326411  0.00237422  0.07028830    -0.58000
C177        C  0.39317152  0.08585917  0.98230180     0.26100
C178        C  0.38661617  0.08414363  0.04674829     0.26100
C179        C  0.39474730  0.92366448  0.97652276     0.26100
C180        C  0.39045053  0.92164119  0.04113354     0.26100
C181        C  0.37724962  0.03861354  0.92874158     0.34700
C182        C  0.37805937  0.97469683  0.92653817     0.34700
C183        C  0.36328324  0.03331761  0.09382138     0.34700
C184        C  0.36654549  0.96931506  0.09184719     0.34700
C185        C  0.41563457  0.11692439  0.99739513    -0.22800
C186        C  0.41151971  0.11583581  0.03815848    -0.22800
C187        C  0.41602610  0.89054645  0.98879086    -0.22800
C188        C  0.41331948  0.88926977  0.02963345    -0.22800
C189        C  0.36892688  0.02817951  0.88961561    -0.23800
C190        C  0.36950064  0.98746040  0.88820367    -0.23800
C191        C  0.34935855  0.01986393  0.13028874    -0.23800
C192        C  0.35175956  0.97915854  0.12914119    -0.23800
C193        C  0.38904642  0.07652942  0.94148020    -0.19200
C194        C  0.37441888  0.07272015  0.08537997    -0.19200
C195        C  0.38111046  0.93166679  0.08092243    -0.19200
C196        C  0.39084976  0.93629866  0.93660367    -0.19200
H197        H  0.43355740  0.13787372  0.98084996     0.13700
H198        H  0.42584821  0.13572374  0.05905528     0.13700
H199        H  0.43251228  0.86985878  0.97039012     0.13700
H200        H  0.42730555  0.86738881  0.04865609     0.13700
H201        H  0.36564683  0.04787178  0.86434490     0.12000
H202        H  0.36681497  0.96939098  0.86162656     0.12000
H203        H  0.34090961  0.03760606  0.15586138     0.12000
H204        H  0.34548810  0.95917966  0.15358496     0.12000
H205        H  0.35561484  0.04245249  0.00992968     0.25300
H206        H  0.36006947  0.96679210  0.00813611     0.25300
C207        C  0.20848234  0.75312538  0.51537212     0.79300
N208        N  0.18100885  0.77917299  0.52925799    -0.79000
C209        C  0.19161096  0.81629135  0.54017040     0.81800
N210        N  0.22994268  0.82785272  0.53617252    -0.78900
C211        C  0.25789516  0.80240900  0.52201155     0.81900
N212        N  0.24729037  0.76467460  0.51141997    -0.80600
C213        C  0.75587108  0.20725879  0.52230064     0.79300
N214        N  0.76876534  0.24523455  0.51544615    -0.79000
C215        C  0.80640598  0.25590819  0.52710499     0.81800
N216        N  0.83046140  0.22863818  0.54452597    -0.78900
C217        C  0.81758495  0.19136558  0.55149646     0.81900
N218        N  0.78047538  0.18076013  0.54018900    -0.80600
C219        C  0.20200961  0.25436841  0.53296777     0.79300
N220        N  0.17366371  0.22936156  0.54697015    -0.79000
C221        C  0.18194984  0.19054229  0.55295788     0.81800
N222        N  0.21902174  0.17672136  0.54528217    -0.78900
C223        C  0.24773261  0.20123254  0.53125232     0.81900
N224        N  0.23925792  0.24030839  0.52462575    -0.80600
C225        C  0.74596674  0.79938409  0.51437231     0.79300
N226        N  0.75719910  0.76124939  0.50561762    -0.79000
C227        C  0.79628114  0.75045876  0.51040043     0.81800
N228        N  0.82322595  0.77760829  0.52297522    -0.78900
C229        C  0.81197309  0.81509879  0.53145022     0.81900
N230        N  0.77343178  0.82574137  0.52758983    -0.80600
N231        N  0.93586926  0.99719638  0.60344852    -0.37500
N232        N  0.99669288  0.05862682  0.60720816    -0.58000
N233        N  0.05958278  0.00109264  0.59723046    -0.37500
N234        N  0.99920069  0.93966087  0.59017943    -0.58000
C235        C  0.91410980  0.03008377  0.59559881     0.26100
C236        C  0.91530905  0.96595585  0.58881889     0.26100
C237        C  0.07859148  0.03527157  0.58826698     0.26100
C238        C  0.08016084  0.97138241  0.57959917     0.26100
C239        C  0.96407046  0.07987617  0.61687516     0.34700
C240        C  0.02831895  0.08212230  0.61458922     0.34700
C241        C  0.96806880  0.91484569  0.59490278     0.34700
C242        C  0.03230269  0.91696079  0.59177703     0.34700
C243        C  0.87882761  0.01942608  0.57688475    -0.22800
C244        C  0.87949023  0.97892141  0.57281062    -0.22800
C245        C  0.11181929  0.02707433  0.56504164    -0.22800
C246        C  0.11288574  0.98668604  0.55971199    -0.22800
C247        C  0.97497483  0.11698395  0.63098233    -0.23800
C248        C  0.01584750  0.11836666  0.62965277    -0.23800
C249        C  0.98135493  0.87620572  0.59959663    -0.23800
C250        C  0.02220162  0.87757762  0.59793355    -0.23800
C251        C  0.92536251  0.06945955  0.60461973    -0.19200
C252        C  0.92800930  0.92603743  0.58944363    -0.19200
C253        C  0.07071219  0.93070574  0.58197224    -0.19200
C254        C  0.06714954  0.07353445  0.60124265    -0.19200
H255        H  0.85521482  0.03877854  0.56664257     0.13700
H256        H  0.85655671  0.96117744  0.55879807     0.13700
H257        H  0.13300206  0.04799415  0.55291325     0.13700
H258        H  0.13498489  0.97048119  0.54272281     0.13700
H259        H  0.95538763  0.14126935  0.63894982     0.12000
H260        H  0.03413398  0.14385664  0.63666043     0.12000
H261        H  0.96340977  0.84973112  0.60259364     0.12000
H262        H  0.04208520  0.85230963  0.59928043     0.12000
H263        H  0.96299830  0.99597599  0.61849948     0.25300
H264        H  0.03491667  0.99794922  0.61575426     0.25300
N265        N  0.59187535  0.96306556  0.52026211    -0.07000
N266        N  0.61056615  0.93135562  0.53373967    -0.59100
N267        N  0.58982135  0.05567832  0.48177714    -0.06700
N268        N  0.61030813  0.08622255  0.46789498    -0.61200
N269        N  0.59045952  0.05565615  0.52101667    -0.06300
N270        N  0.61110506  0.08620679  0.53455066    -0.59100
N271        N  0.59087652  0.96275778  0.48104226    -0.06000
N272        N  0.60927612  0.93077778  0.46722889    -0.61600
C273        C  0.62133412  0.91118768  0.50049495     0.95200
C274        C  0.62305538  0.10535817  0.50116674     0.95000
N275        N  0.48135792  0.05432560  0.42018888    -0.07200
N276        N  0.46601742  0.08466301  0.40050075    -0.59700
N277        N  0.52257172  0.96282181  0.41619152    -0.05300
N278        N  0.53557190  0.93351840  0.39325492    -0.60900
N279        N  0.48343251  0.96234202  0.41797201    -0.07200
N280        N  0.46917764  0.93285185  0.39633773    -0.60000
N281        N  0.52053061  0.05505123  0.41814705    -0.04900
N282        N  0.53248229  0.08587769  0.39693003    -0.61000
Mn283      Mn  0.55715041  0.00907194  0.44813514     1.18400
C284        C  0.49818208  0.10443375  0.38645188     0.97300
C285        C  0.50190469  0.91494305  0.38093062     0.97900
N286        N  0.52698931  0.05303734  0.58995613    -0.07200
N287        N  0.54061816  0.08150745  0.61332830    -0.63500
N288        N  0.49100952  0.96013977  0.59057146    -0.06000
N289        N  0.47936222  0.93073146  0.61372303    -0.64200
N290        N  0.53009100  0.96180838  0.58954077    -0.06700
N291        N  0.54573576  0.93368510  0.61211084    -0.63800
N292        N  0.48789549  0.05149325  0.59172060    -0.05600
N293        N  0.47418479  0.07884575  0.61635230    -0.64500
Mn294      Mn  0.56096194  0.00859208  0.55584680     1.10700
C295        C  0.50737680  0.09738931  0.62972506     0.98500
C296        C  0.51378927  0.91419787  0.62691913     0.98600
N297        N  0.42019157  0.95905460  0.48749609    -0.06700
N298        N  0.39902625  0.92849673  0.47467578    -0.62100
N299        N  0.41895536  0.05035683  0.52825315    -0.06100
N300        N  0.39685229  0.07893911  0.54368797    -0.58800
N301        N  0.41714995  0.05117453  0.48907178    -0.07400
N302        N  0.39367146  0.08039090  0.47712373    -0.61700
N303        N  0.42209015  0.95880878  0.52668952    -0.06400
N304        N  0.40223825  0.92832365  0.54121080    -0.58900
Mn305      Mn  0.44952689  0.00674840  0.45267997     1.20200
Mn306      Mn  0.45411663  0.00512456  0.56009192     1.10100
Cl307      Cl  0.50540237  0.00743251  0.50414468    -0.86800
C308        C  0.38831767  0.90922266  0.50855155     0.95500
C309        C  0.38154759  0.09783886  0.51153202     0.95300
C310        C  0.70474566  0.81419850  0.51025739    -0.07000
C311        C  0.69149486  0.82569291  0.47229844    -0.18100
C312        C  0.66158427  0.85463088  0.46766073     0.10200
C313        C  0.64548366  0.87378430  0.50181276    -0.06900
C314        C  0.65587507  0.85880944  0.53961290    -0.18200
C315        C  0.68487759  0.82931401  0.54409757     0.10200
S316        S  0.64733913  0.86705245  0.41746387    -0.33100
S317        S  0.69825444  0.81491417  0.59417651    -0.33100
H318        H  0.71472192  0.77798773  0.58355981     0.28200
H319        H  0.60626858  0.86626742  0.42587981     0.28200
H320        H  0.70658413  0.81429655  0.44609688     0.18800
H321        H  0.64295742  0.87159311  0.56631009     0.18800
C322        C  0.84136687  0.84376325  0.54562582    -0.07000
C323        C  0.83767741  0.85861560  0.58449815    -0.18100
C324        C  0.86632018  0.88424899  0.60030451     0.10200
C325        C  0.89926956  0.89524724  0.57664996    -0.06900
C326        C  0.90273394  0.88042804  0.53766069    -0.18200
C327        C  0.87378566  0.85535577  0.52169459     0.10200
S328        S  0.85880016  0.90249126  0.65032086    -0.33100
S329        S  0.87852052  0.84107259  0.47001835    -0.33100
H330        H  0.83739225  0.83936148  0.46211855     0.28200
H331        H  0.89925169  0.90865850  0.65913923     0.28200
H332        H  0.81259550  0.84977299  0.60278377     0.18800
H333        H  0.92731234  0.88988737  0.51900973     0.18800
C334        C  0.28664254  0.18356202  0.52119598    -0.07000
C335        C  0.31622877  0.18216450  0.55065462    -0.18100
C336        C  0.34907904  0.15660818  0.54701091     0.10200
C337        C  0.35187180  0.13064443  0.51379845    -0.06900
C338        C  0.32337264  0.13396886  0.48326458    -0.18200
C339        C  0.29103645  0.16009874  0.48660064     0.10200
S340        S  0.38607879  0.15854456  0.58588175    -0.33100
S341        S  0.25450888  0.16003306  0.44714098    -0.33100
H342        H  0.24212280  0.19952294  0.45268921     0.28200
H343        H  0.41860579  0.15236561  0.56012609     0.28200
H344        H  0.31291181  0.19992820  0.57743116     0.18800
H345        H  0.32513428  0.11473159  0.45740503     0.18800
C346        C  0.09485236  0.10700088  0.59363875    -0.07000
C347        C  0.08498022  0.13388072  0.56323667    -0.18100
C348        C  0.11261844  0.16158215  0.54942258     0.10200
C349        C  0.15090798  0.16308953  0.56691784    -0.06900
C350        C  0.16037737  0.13692635  0.59802528    -0.18200
C351        C  0.13271074  0.10924427  0.61183500     0.10200
S352        S  0.09822791  0.19158911  0.50727441    -0.33100
S353        S  0.14792362  0.07677122  0.65176063    -0.33100
H354        H  0.10941824  0.06934264  0.66638309     0.28200
H355        H  0.13557196  0.18999444  0.48830851     0.28200
H356        H  0.05624710  0.13171837  0.54861329     0.18800
H357        H  0.18963013  0.13805571  0.61167940     0.18800
C358        C  0.65138151  0.13936861  0.50122765    -0.07000
C359        C  0.68203942  0.13972416  0.47277761    -0.18100
C360        C  0.71452763  0.16560757  0.47632483     0.10200
C361        C  0.71668698  0.19225636  0.50884171    -0.06900
C362        C  0.68437303  0.19438057  0.53534386    -0.18200
C363        C  0.65157387  0.16870228  0.53155891     0.10200
S364        S  0.75447713  0.16025853  0.44073552    -0.33100
S365        S  0.61144289  0.17418601  0.56689593    -0.33100
H366        H  0.58139504  0.16137612  0.54060110     0.28200
H367        H  0.77051076  0.19839318  0.44606439     0.28200
H368        H  0.68220493  0.11780172  0.44910698     0.18800
H369        H  0.68580660  0.21442395  0.56060970     0.18800
C370        C  0.84517940  0.16171346  0.56769634    -0.07000
C371        C  0.88113250  0.15576587  0.54742268    -0.18100
C372        C  0.90749693  0.12583778  0.55897510     0.10200
C373        C  0.89829523  0.10212107  0.59243373    -0.06900
C374        C  0.86254011  0.10839779  0.61314021    -0.18200
C375        C  0.83581244  0.13794680  0.60103958     0.10200
S376        S  0.95149809  0.11650054  0.52921902    -0.33100
S377        S  0.79067008  0.14423068  0.62948944    -0.33100
H378        H  0.78742084  0.18539059  0.62346198     0.28200
H379        H  0.94893781  0.15082091  0.50554415     0.28200
H380        H  0.88770033  0.17358850  0.52138812     0.18800
H381        H  0.85540090  0.09000959  0.63863361     0.18800
C382        C  0.29789605  0.81874012  0.51435680    -0.07000
C383        C  0.32382332  0.82405244  0.54668659    -0.18100
C384        C  0.35587687  0.85065317  0.54447109     0.10200
C385        C  0.36096041  0.87440149  0.50988612    -0.06900
C386        C  0.33648301  0.86691824  0.47669827    -0.18200
C387        C  0.30552498  0.83917603  0.47852162     0.10200
S388        S  0.38859844  0.85302326  0.58701579    -0.33100
S389        S  0.27403808  0.83361599  0.43543977    -0.33100
H390        H  0.27080914  0.79230991  0.43984078     0.28200
H391        H  0.42345765  0.85734060  0.56411118     0.28200
H392        H  0.31807380  0.80861549  0.57443437     0.18800
H393        H  0.34014176  0.88408672  0.44965795     0.18800
C394        C  0.16087377  0.84491747  0.55239761    -0.07000
C395        C  0.12656404  0.84804247  0.52872156    -0.18100
C396        C  0.09748890  0.87656599  0.53676389     0.10200
C397        C  0.10173072  0.90141181  0.57048621    -0.06900
C398        C  0.13605750  0.89832550  0.59418352    -0.18200
C399        C  0.16565977  0.87040651  0.58551545     0.10200
S400        S  0.05645510  0.88051232  0.50217141    -0.33100
S401        S  0.20795202  0.86786612  0.61860854    -0.33100
H402        H  0.21284488  0.82651098  0.61579022     0.28200
H403        H  0.05070131  0.92156642  0.50688868     0.28200
H404        H  0.12312070  0.82911256  0.50277712     0.18800
H405        H  0.13948742  0.91748179  0.61994855     0.18800
C406        C  0.50768454  0.83076252  0.72371706    -0.07000
C407        C  0.54463635  0.84744901  0.71407204    -0.18100
C408        C  0.54891644  0.87216875  0.68060978     0.10200
C409        C  0.51501580  0.88158892  0.65697974    -0.06900
C410        C  0.47905081  0.86198722  0.66517462    -0.18200
C411        C  0.47514335  0.83668941  0.69783419     0.10200
S412        S  0.59754715  0.89282761  0.67200631    -0.33100
S413        S  0.42662192  0.81574014  0.70721152    -0.33100
H414        H  0.44062949  0.78246033  0.72815612     0.28200
H415        H  0.59814995  0.88136868  0.63162791     0.28200
H416        H  0.56966021  0.84327744  0.73408810     0.18800
H417        H  0.45297000  0.86781630  0.64711740     0.18800
C418        C  0.40866899  0.91127726  0.90492650    -0.07000
C419        C  0.39117060  0.87455659  0.89617105    -0.18100
C420        C  0.40911840  0.84829028  0.86934128     0.10200
C421        C  0.44520283  0.85908912  0.85073380    -0.06900
C422        C  0.46167657  0.89652136  0.85801425    -0.18200
C423        C  0.44445109  0.92231496  0.88561010     0.10200
S424        S  0.38449162  0.80170359  0.85993254    -0.33100
S425        S  0.47099344  0.96761601  0.89648010    -0.33100
H426        H  0.46244080  0.96805500  0.93752547     0.28200
H427        H  0.39732581  0.79786411  0.82017028     0.28200
H428        H  0.36378739  0.86606528  0.91096185     0.18800
H429        H  0.48946042  0.90478327  0.84381633     0.18800
C430        C  0.49835129  0.18183525  0.72572561    -0.07000
C431        C  0.53493176  0.16323486  0.71839750    -0.18100
C432        C  0.53930359  0.13609585  0.68700265     0.10200
C433        C  0.50673255  0.12851202  0.66113208    -0.06900
C434        C  0.47097117  0.14933968  0.66724218    -0.18200
C435        C  0.46634734  0.17551278  0.69925976     0.10200
S436        S  0.58517732  0.10840889  0.68548646    -0.33100
S437        S  0.41763888  0.19685875  0.70717591    -0.33100
H438        H  0.43077859  0.23013496  0.72875608     0.28200
H439        H  0.56585016  0.07137674  0.68641179     0.28200
H440        H  0.55901493  0.16676866  0.73966411     0.18800
H441        H  0.44568998  0.14386161  0.64800288     0.18800
C442        C  0.40646637  0.10370177  0.91140077    -0.07000
C443        C  0.44026718  0.09086284  0.89037297    -0.18100
C444        C  0.45967645  0.11572812  0.86351795     0.10200
C445        C  0.44511908  0.15456910  0.85750653    -0.06900
C446        C  0.41113159  0.16737882  0.87830653    -0.18200
C447        C  0.39137471  0.14214277  0.90490162     0.10200
S448        S  0.50376965  0.09660583  0.83944655    -0.33100
S449        S  0.34679841  0.15883151  0.92997387    -0.33100
H450        H  0.34208218  0.19419539  0.90822707     0.28200
H451        H  0.52504303  0.13248337  0.84098487     0.28200
H452        H  0.45217225  0.06143772  0.89569959     0.18800
H453        H  0.39984703  0.19707234  0.87330371     0.18800
C454        C  0.49587851  0.13876219  0.35861684    -0.07000
C455        C  0.52485579  0.14210560  0.32859612    -0.18100
C456        C  0.51984511  0.16828007  0.29652512     0.10200
C457        C  0.48494649  0.19152641  0.29379680    -0.06900
C458        C  0.45769587  0.19082966  0.32552499    -0.18200
C459        C  0.46330505  0.16553075  0.35831774     0.10200
S460        S  0.55646182  0.16704427  0.25727565    -0.33100
S461        S  0.42750157  0.16828498  0.39831805    -0.33100
H462        H  0.45486469  0.15849623  0.42858765     0.28200
H463        H  0.55403753  0.20780829  0.24895010     0.28200
H464        H  0.55035846  0.12236926  0.32860308     0.18800
H465        H  0.43076581  0.20851656  0.32372697     0.18800
C466        C  0.38298589  0.10019568  0.11909879    -0.07000
C467        C  0.41189131  0.08846171  0.14691145    -0.18100
C468        C  0.42907938  0.11567934  0.17303334     0.10200
C469        C  0.41730907  0.15597465  0.17150526    -0.06900
C470        C  0.38656645  0.16729217  0.14547759    -0.18200
C471        C  0.36871829  0.13966607  0.11987399     0.10200
S472        S  0.46869133  0.09751534  0.20449450    -0.33100
S473        S  0.32932280  0.15681231  0.08756060    -0.33100
H474        H  0.31180683  0.11940449  0.08157116     0.28200
H475        H  0.49476569  0.12891404  0.19563813     0.28200
H476        H  0.42338525  0.05839888  0.14628756     0.18800
H477        H  0.37675702  0.19792510  0.14474613     0.18800
C478        C  0.48724549  0.82109315  0.29386432    -0.07000
C479        C  0.52496242  0.83813593  0.29909079    -0.18100
C480        C  0.53146795  0.86782193  0.32790077     0.10200
C481        C  0.49972431  0.88029485  0.35300565    -0.06900
C482        C  0.46315714  0.86013921  0.35001740    -0.18200
C483        C  0.45668568  0.83093738  0.32102198     0.10200
S484        S  0.57960091  0.89115273  0.32776740    -0.33100
S485        S  0.40765829  0.80926890  0.31806598    -0.33100
H486        H  0.41964034  0.77466928  0.29782949     0.28200
H487        H  0.56376258  0.92920785  0.32087269     0.28200
H488        H  0.54836344  0.83139958  0.27785302     0.18800
H489        H  0.43865747  0.86816671  0.36946504     0.18800
C490        C  0.42418910  0.84861155  0.16762907    -0.07000
C491        C  0.44144338  0.88629211  0.16479048    -0.18100
C492        C  0.42777509  0.91385706  0.13706789     0.10200
C493        C  0.39458234  0.90444272  0.11290077    -0.06900
C494        C  0.37614803  0.86731826  0.11694755    -0.18200
C495        C  0.39073866  0.83919640  0.14397909     0.10200
S496        S  0.45574808  0.95929087  0.13223070    -0.33100
S497        S  0.36553851  0.79211165  0.14693569    -0.33100
H498        H  0.37528541  0.78439689  0.18698741     0.28200
H499        H  0.45295510  0.96149189  0.09044327     0.28200
H500        H  0.46744626  0.89342396  0.18260538     0.18800
H501        H  0.35084421  0.85996953  0.09827885     0.18800
C502        C  0.82294563  0.29639620  0.52194561    -0.07000
C503        C  0.83157046  0.31052030  0.48352205    -0.18100
C504        C  0.85864292  0.34197628  0.47760523     0.10200
C505        C  0.87865342  0.35915125  0.51084714    -0.06900
C506        C  0.86712924  0.34688101  0.54922151    -0.18200
C507        C  0.83970177  0.31626025  0.55505286     0.10200
S508        S  0.86709232  0.35746446  0.42694589    -0.33100
S509        S  0.82938632  0.30191407  0.60586649    -0.33100
H510        H  0.79150514  0.28589698  0.59806532     0.28200
H511        H  0.86520336  0.39816041  0.43615944     0.28200
H512        H  0.81898083  0.29550686  0.45784982     0.18800
H513        H  0.88084855  0.36003341  0.57531373     0.18800
C514        C  0.87161484  0.65068913  0.49889250    -0.07000
C515        C  0.85436577  0.65993747  0.53603482    -0.18100
C516        C  0.82449311  0.68877400  0.53968984     0.10200
C517        C  0.81098961  0.70939233  0.50566037    -0.06900
C518        C  0.82493728  0.69751550  0.46809274    -0.18200
C519        C  0.85499880  0.66860878  0.46427454     0.10200
S520        S  0.80767480  0.70125383  0.58927351    -0.33100
S521        S  0.87302229  0.65908098  0.41469255    -0.33100
H522        H  0.91119665  0.67404260  0.42326911     0.28200
H523        H  0.77089150  0.71739010  0.57734309     0.28200
H524        H  0.86549736  0.64603165  0.56294835     0.18800
H525        H  0.81529324  0.71363374  0.44184257     0.18800
C526        C  0.13792090  0.36040047  0.51152265    -0.07000
C527        C  0.15297217  0.35235175  0.54987686    -0.18100
C528        C  0.17899821  0.32072446  0.55685190     0.10200
C529        C  0.19012190  0.29572307  0.52508536    -0.06900
C530        C  0.17876002  0.30588153  0.48616910    -0.18200
C531        C  0.15322225  0.33829082  0.47881584     0.10200
S532        S  0.19470077  0.31185269  0.60753117    -0.33100
S533        S  0.13912315  0.34901956  0.42790951    -0.33100
H534        H  0.16273661  0.31977440  0.40947288     0.28200
H535        H  0.22904877  0.29002809  0.59761162     0.28200
H536        H  0.14290201  0.36955932  0.57522794     0.18800
H537        H  0.18743294  0.28649453  0.46188871     0.18800
C538        C  0.13833799  0.65079482  0.49829070    -0.07000
C539        C  0.14287337  0.67781109  0.46681303    -0.18100
C540        C  0.17029124  0.70899637  0.46922804     0.10200
C541        C  0.19407951  0.71345033  0.50368448    -0.06900
C542        C  0.19283636  0.68396403  0.53310855    -0.18200
C543        C  0.16552536  0.65240682  0.53062445     0.10200
S544        S  0.17056478  0.74472310  0.42929181    -0.33100
S545        S  0.16510578  0.61524515  0.56945133    -0.33100
H546        H  0.20015199  0.62767072  0.58879132     0.28200
H547        H  0.20955336  0.75796692  0.43623092     0.28200
H548        H  0.12300046  0.67642862  0.44137057     0.18800
H549        H  0.21093464  0.68748742  0.55963232     0.18800
C550        C  0.82876389  0.49889937  0.71917715    -0.07000
C551        C  0.82775829  0.47209039  0.68722769    -0.18100
C552        C  0.85205111  0.47744036  0.65368434     0.10200
C553        C  0.87929299  0.50943463  0.65264426    -0.06900
C554        C  0.87755571  0.53820383  0.68295458    -0.18200
C555        C  0.85243303  0.53333352  0.71603359     0.10200
S556        S  0.84744875  0.44198525  0.61359944    -0.33100
S557        S  0.85418531  0.57034891  0.75487267    -0.33100
H558        H  0.81587585  0.56288297  0.77001688     0.28200
H559        H  0.85735825  0.46890646  0.58313421     0.28200
H560        H  0.80941458  0.44574410  0.68928903     0.18800
H561        H  0.89764726  0.56331654  0.68222195     0.18800
C562        C  0.85506616  0.43555604  0.84740007    -0.07000
C563        C  0.87676470  0.40187347  0.83569422    -0.18100
C564        C  0.90271234  0.38290170  0.86234662     0.10200
C565        C  0.90717559  0.39815649  0.90139160    -0.06900
C566        C  0.88477468  0.43127752  0.91313813    -0.18200
C567        C  0.85936914  0.45042074  0.88652838     0.10200
S568        S  0.93021399  0.34040836  0.84452658    -0.33100
S569        S  0.83577895  0.49552211  0.90342891    -0.33100
H570        H  0.83849508  0.51535493  0.86662420     0.28200
H571        H  0.93837709  0.32399889  0.88218527     0.28200
H572        H  0.87331901  0.39021444  0.80574585     0.18800
H573        H  0.88911273  0.44388379  0.94259625     0.18800
C574        C  0.19039549  0.51502718  0.71567769    -0.07000
C575        C  0.18993455  0.48374436  0.68810774    -0.18100
C576        C  0.16417858  0.48420705  0.65502150     0.10200
C577        C  0.13753504  0.51640702  0.64983883    -0.06900
C578        C  0.14114369  0.54948674  0.67519220    -0.18200
C579        C  0.16713664  0.54907945  0.70798266     0.10200
S580        S  0.16546933  0.44330835  0.62015068    -0.33100
S581        S  0.16648865  0.59136630  0.74099352    -0.33100
H582        H  0.20391768  0.58438452  0.75842595     0.28200
H583        H  0.19533520  0.42110460  0.63936774     0.28200
H584        H  0.20789741  0.45770843  0.69408341     0.18800
H585        H  0.12175034  0.57487540  0.67108659     0.18800
C586        C  0.11394065  0.41745703  0.89971924    -0.07000
C587        C  0.13481009  0.45122984  0.91243128    -0.18100
C588        C  0.15941833  0.47210011  0.88643815     0.10200
C589        C  0.16364740  0.45888786  0.84669564    -0.06900
C590        C  0.14280325  0.42520236  0.83381386    -0.18200
C591        C  0.11840120  0.40404145  0.86000579     0.10200
S592        S  0.18279813  0.51651358  0.90528699    -0.33100
S593        S  0.09345066  0.36061942  0.84088519    -0.33100
H594        H  0.08937124  0.34125745  0.87776408     0.28200
H595        H  0.18028471  0.53783052  0.86931823     0.28200
H596        H  0.13062450  0.46234979  0.94250362     0.18800
H597        H  0.14629430  0.41478237  0.80340826     0.18800
C598        C  0.82790558  0.47754941  0.28728872    -0.07000
C599        C  0.83902814  0.51668363  0.29587700    -0.18100
C600        C  0.86410169  0.52547062  0.32819863     0.10200
C601        C  0.87947719  0.49419556  0.35198379    -0.06900
C602        C  0.86513227  0.45552229  0.34515574    -0.18200
C603        C  0.83946936  0.44699496  0.31344730     0.10200
S604        S  0.87666561  0.57675691  0.33574305    -0.33100
S605        S  0.82393559  0.39619329  0.30684101    -0.33100
H606        H  0.78949890  0.40468733  0.28450522     0.28200
H607        H  0.86785129  0.57547841  0.37675197     0.28200
H608        H  0.82994751  0.54032692  0.27594026     0.18800
H609        H  0.87514418  0.43118758  0.36370362     0.18800
C610        C  0.85383243  0.42827325  0.15297108    -0.07000
C611        C  0.87479802  0.39335910  0.16210593    -0.18100
C612        C  0.90182325  0.37677085  0.13488105     0.10200
C613        C  0.90821001  0.39555767  0.09781897    -0.06900
C614        C  0.88683905  0.43009606  0.08857807    -0.18200
C615        C  0.86046585  0.44702132  0.11588146     0.10200
S616        S  0.92804818  0.33239539  0.14937236    -0.33100
S617        S  0.83934033  0.49452712  0.10302251    -0.33100
H618        H  0.84317584  0.51067721  0.14157231     0.28200
H619        H  0.93393955  0.31799881  0.11042958     0.28200
H620        H  0.87002738  0.37890188  0.19055997     0.18800
H621        H  0.89262673  0.44533612  0.06071820     0.18800
C622        C  0.13407725  0.50457011  0.35141465    -0.07000
C623        C  0.15295877  0.46793928  0.34432248    -0.18100
C624        C  0.18034597  0.46313498  0.31326302     0.10200
C625        C  0.18890145  0.49530186  0.28792239    -0.06900
C626        C  0.17248931  0.53255206  0.29635858    -0.18200
C627        C  0.14583603  0.53779333  0.32815502     0.10200
S628        S  0.20176625  0.41456769  0.30589241    -0.33100
S629        S  0.12639873  0.58707857  0.33532381    -0.33100
H630        H  0.13669702  0.58802862  0.37602658     0.28200
H631        H  0.23641071  0.42771666  0.28643683     0.28200
H632        H  0.14545374  0.44231618  0.36227045     0.18800
H633        H  0.17881162  0.55729033  0.27674075     0.18800
C634        C  0.17079922  0.44263311  0.15392065    -0.07000
C635        C  0.16868314  0.45981441  0.11592684    -0.18100
C636        C  0.14099163  0.44667163  0.08777134     0.10200
C637        C  0.11628827  0.41382504  0.09685631    -0.06900
C638        C  0.11971545  0.39562126  0.13430556    -0.18200
C639        C  0.14628096  0.40987525  0.16299212     0.10200
S640        S  0.13722133  0.47486227  0.04213264    -0.33100
S641        S  0.14775550  0.38465082  0.21032594    -0.33100
H642        H  0.18906020  0.38912269  0.21574866     0.28200
H643        H  0.09579034  0.47065228  0.03783631     0.28200
H644        H  0.18709335  0.48527140  0.10895512     0.18800
H645        H  0.10095692  0.37048012  0.14145319     0.18800
C646        C  0.48847999  0.28245049  0.17692625    -0.07000
C647        C  0.46675886  0.31754657  0.18234727    -0.18100
C648        C  0.47259972  0.35056878  0.15743922     0.10200
C649        C  0.50112330  0.34878661  0.12645109    -0.06900
C650        C  0.52482033  0.31454192  0.12282907    -0.18200
C651        C  0.51851914  0.28126256  0.14730720     0.10200
S652        S  0.44350801  0.39492845  0.16563317    -0.33100
S653        S  0.54834102  0.23764966  0.13758046    -0.33100
H654        H  0.54084850  0.21774155  0.17354031     0.28200
H655        H  0.41906778  0.37976741  0.19606187     0.28200
H656        H  0.44382647  0.31835688  0.20503754     0.18800
H657        H  0.54691375  0.31282730  0.09932733     0.18800
C658        C  0.51300546  0.65978797  0.12919117    -0.07000
C659        C  0.53513863  0.69478714  0.12464690    -0.18100
C660        C  0.52817304  0.72794312  0.14914879     0.10200
C661        C  0.49963170  0.72574700  0.18013102    -0.06900
C662        C  0.47941028  0.68996061  0.18628271    -0.18200
C663        C  0.48541187  0.65725345  0.16104673     0.10200
S664        S  0.55381668  0.77333134  0.13690270    -0.33100
S665        S  0.45509400  0.61396591  0.16968454    -0.33100
H666        H  0.48311791  0.58644039  0.15522077     0.28200
H667        H  0.55100467  0.79073546  0.17492418     0.28200
H668        H  0.55578695  0.69741517  0.09995035     0.18800
H669        H  0.45676103  0.68832033  0.20925406     0.18800
C670        C  0.50784228  0.73010488  0.83187743    -0.07000
C671        C  0.54246945  0.72482690  0.85458548    -0.18100
C672        C  0.54723921  0.69164422  0.87936322     0.10200
C673        C  0.51594315  0.66357826  0.88281177    -0.06900
C674        C  0.48209049  0.66824535  0.85856546    -0.18200
C675        C  0.47801980  0.70073847  0.83290611     0.10200
S676        S  0.59224298  0.68918995  0.90842819    -0.33100
S677        S  0.43289759  0.70454987  0.80399674    -0.33100
H678        H  0.45015249  0.72567222  0.77233663     0.28200
H679        H  0.60339902  0.65227886  0.89223482     0.28200
H680        H  0.56512366  0.74770758  0.85452303     0.18800
H681        H  0.45806666  0.64687771  0.86026796     0.18800
C682        C  0.72110870  0.48254210  0.82032871    -0.07000
C683        C  0.70479155  0.52053283  0.82571708    -0.18100
C684        C  0.67160248  0.52650072  0.85076056     0.10200
C685        C  0.65562854  0.49408713  0.87248666    -0.06900
C686        C  0.66950670  0.45575518  0.86329080    -0.18200
C687        C  0.70139258  0.44968895  0.83724929     0.10200
S688        S  0.65152059  0.57594458  0.85381787    -0.33100
S689        S  0.71716376  0.39918307  0.82851433    -0.33100
H690        H  0.73437304  0.40643408  0.79095802     0.28200
H691        H  0.61159257  0.56326508  0.85471115     0.28200
H692        H  0.71913839  0.54589060  0.81208392     0.18800
H693        H  0.65667229  0.43009368  0.87780474     0.18800
C694        C  0.49131559  0.28781518  0.82819558    -0.07000
C695        C  0.52934722  0.30356865  0.83484829    -0.18100
C696        C  0.53446397  0.33781251  0.85822310     0.11700
C697        C  0.50088201  0.35559050  0.87686627    -0.06900
C698        C  0.46274365  0.34170430  0.86668385    -0.18200
C699        C  0.45767137  0.30852180  0.84234588     0.10200
S700        S  0.58444241  0.35649905  0.86344950    -0.33100
S701        S  0.40737276  0.29250013  0.83224987    -0.33100
H702        H  0.41618598  0.27336643  0.79598096     0.28200
H703        H  0.57300157  0.39652027  0.85976057     0.28200
H704        H  0.55528231  0.28808051  0.82346280     0.18800
H705        H  0.43643052  0.35563125  0.87913348     0.18800
C706        C  0.29567686  0.50992267  0.82082069    -0.07000
C707        C  0.30346944  0.54555652  0.84084618    -0.18100
C708        C  0.33479598  0.54859848  0.86842777     0.10200
C709        C  0.35832204  0.51467643  0.87747344    -0.06900
C710        C  0.35180935  0.47980039  0.85536505    -0.18200
C711        C  0.32123586  0.47728423  0.82702733     0.10200
S712        S  0.34037729  0.59557764  0.89335742    -0.33100
S713        S  0.31407657  0.43050991  0.80188182    -0.33100
H714        H  0.29457719  0.44639641  0.76834814     0.28200
H715        H  0.38025739  0.59989764  0.88117564     0.28200
H716        H  0.28336642  0.57045608  0.83695732     0.18800
H717        H  0.36986769  0.45373722  0.86101848     0.18800
C718        C  0.36104391  0.51064953  0.13312775    -0.07000
C719        C  0.35682054  0.47507416  0.15455236    -0.18100
C720        C  0.32624871  0.46997425  0.18233906     0.10200
C721        C  0.29853477  0.50073051  0.18866889    -0.06900
C722        C  0.30492421  0.53763399  0.17066595    -0.18200
C723        C  0.33576367  0.54299218  0.14295937     0.10200
S724        S  0.32185824  0.42232314  0.20633983    -0.33100
S725        S  0.33795809  0.59027917  0.11826875    -0.33100
H726        H  0.33262495  0.57365504  0.08010545     0.28200
H727        H  0.30008276  0.43613782  0.23940483     0.28200
H728        H  0.37639310  0.45028046  0.14837802     0.18800
H729        H  0.28337996  0.56121511  0.17510394     0.18800
C730        C  0.65914769  0.49927831  0.13124841    -0.07000
C731        C  0.68976879  0.52759446  0.13173196    -0.18100
C732        C  0.72296303  0.52304079  0.15654428     0.10200
C733        C  0.72569371  0.48953500  0.18156935    -0.06900
C734        C  0.69350244  0.46325201  0.18385589    -0.18200
C735        C  0.66002905  0.46804340  0.15937467     0.10200
S736        S  0.76232527  0.55917006  0.15242528    -0.33100
S737        S  0.62010130  0.43272887  0.16468830    -0.33100
H738        H  0.58960398  0.45978435  0.15511626     0.28200
H739        H  0.77967078  0.55171938  0.18984231     0.28200
H740        H  0.68920710  0.55207267  0.11081673     0.18800
H741        H  0.69545558  0.43752575  0.20312247     0.18800
loop_ 
_geom_bond_atom_site_label_1 
_geom_bond_atom_site_label_2 
_geom_bond_distance 
_geom_bond_site_symmetry_2 
_ccdc_geom_bond_type 
N1            N2   1.320       .  A
N1            N7   1.317       .  A
N1          Mn30   2.202       .  S
N2            C9   1.353       .  A
N3            N5   1.316       .  A
N3            N4   1.319       .  A
N3          Mn19   2.203   1_556  S
N4           C10   1.353       .  A
N5            N6   1.326       .  A
N5          Mn30   2.229   1_556  S
N6           C10   1.359       .  A
N7            N8   1.320       .  A
N7          Mn19   2.205       .  S
N8            C9   1.353       .  A
C9          C730   1.479       .  S
C10         C685   1.498       .  S
N11          N17   1.314       .  A
N11          N12   1.319       .  A
N11         Mn41   2.201   1_556  S
N12          C20   1.355       .  A
N13          N14   1.326       .  A
N13          N15   1.316       .  A
N13         Mn19   2.218       .  S
N14          C21   1.357       .  A
N15          N16   1.321       .  A
N15         Mn41   2.220       .  S
N16          C21   1.355       .  A
N17          N18   1.321       .  A
N17         Mn19   2.202   1_556  S
N18          C20   1.355       .  A
Mn19        Cl43   2.551       .  S
C20         C697   1.490       .  S
C21         C649   1.492       .  S
N22          N23   1.321       .  A
N22          N28   1.316       .  A
N22         Mn30   2.202   1_556  S
N23          C31   1.353       .  A
N24          N26   1.316       .  A
N24          N25   1.318       .  A
N24         Mn42   2.196       .  S
N25          C32   1.350       .  A
N26          N27   1.327       .  A
N26         Mn30   2.233       .  S
N27          C32   1.359       .  A
N28          N29   1.322       .  A
N28         Mn42   2.216   1_556  S
N29          C31   1.356       .  A
Mn30        Cl43   2.560       .  S
C31         C673   1.490       .  S
C32         C658   1.486       .  S
N33          N34   1.319       .  A
N33          N39   1.315       .  A
N33         Mn41   2.200       .  S
N34          C44   1.354       .  A
N35          N36   1.320       .  A
N35          N37   1.314       .  A
N35         Mn42   2.198   1_556  S
N36          C45   1.352       .  A
N37          N38   1.323       .  A
N37         Mn41   2.217   1_556  S
N38          C45   1.358       .  A
N39          N40   1.323       .  A
N39         Mn42   2.213       .  S
N40          C44   1.355       .  A
Mn41        Cl43   2.546       .  S
Mn42        Cl43   2.545       .  S
C44         C718   1.489       .  S
C45         C709   1.494       .  S
C46          N47   1.356       .  A
C46          N51   1.364       .  A
C46         C721   1.469       .  S
N47          C48   1.352       .  A
C48          N49   1.352       .  A
C48         C634   1.472       .  S
N49          C50   1.356       .  A
C50          N51   1.364       .  A
C50         C625   1.470       .  S
C52          N53   1.362       .  A
C52          N57   1.355       .  A
C52         C733   1.468       .  S
N53          C54   1.363       .  A
C54          N55   1.359       .  A
C54         C598   1.472       .  S
N55          C56   1.355       .  A
C56          N57   1.353       .  A
C56         C610   1.475       .  S
C58          N59   1.357       .  A
C58          N63   1.368       .  A
C58         C574   1.475       .  S
N59          C60   1.353       .  A
C60          N61   1.349       .  A
C60         C589   1.467       .  S
N61          C62   1.352       .  A
C62          N63   1.367       .  A
C62         C706   1.472       .  S
C64          N65   1.367       .  A
C64          N69   1.359       .  A
C64         C550   1.474       .  S
N65          C66   1.365       .  A
C66          N67   1.355       .  A
C66         C682   1.479       .  S
N67          C68   1.350       .  A
C68          N69   1.353       .  A
C68         C562   1.469       .  S
N70          C75   1.351       .  A
N70          C74   1.350   1_455  A
N70         H102   1.046       .  S
N71          C78   1.349       .  A
N71          C79   1.349   1_556  A
N72          C77   1.354       .  A
N72          C76   1.354   1_455  A
N72         H103   1.038       .  S
N73          C80   1.347       .  A
N73          C81   1.347   1_556  A
C74          C82   1.388       .  A
C74          C90   1.410       .  A
C75          C91   1.409       .  A
C75          C83   1.387       .  A
C76          C84   1.387       .  A
C76          C93   1.414       .  A
C77          C92   1.415       .  A
C77          C85   1.387       .  A
C78          C90   1.409       .  A
C78          C86   1.386       .  A
C79          C93   1.409       .  A
C79          C87   1.386       .  A
C80          C88   1.386       .  A
C80          C91   1.406       .  A
C81          C89   1.387       .  A
C81          C92   1.407       .  A
C82          C83   1.371   1_655  A
C82          H94   1.082       .  S
C83          H95   1.082       .  S
C84          C85   1.373   1_655  A
C84          H96   1.082       .  S
C85          H97   1.082       .  S
C86          C87   1.375   1_556  A
C86          H98   1.082       .  S
C87          H99   1.082       .  S
C88          C89   1.375   1_556  A
C88         H100   1.082       .  S
C89         H101   1.082       .  S
C90         C565   1.483       .  S
C91         C586   1.484       .  S
C92         C637   1.488       .  S
C93         C613   1.487       .  S
N104        N105   1.320       .  A
N104        N110   1.315       .  A
N104       Mn133   2.205       .  S
N105        C112   1.353       .  A
N106        N108   1.316       .  A
N106        N107   1.318       .  A
N106       Mn122   2.199   1_655  S
N107        C113   1.353       .  A
N108        N109   1.324       .  A
N108       Mn133   2.219   1_655  S
N109        C113   1.357       .  A
N110        N111   1.321       .  A
N110       Mn122   2.212       .  S
N111        C112   1.357       .  A
C112        C622   1.493       .  S
C113        C601   1.494       .  S
N114        N120   1.315       .  A
N114        N115   1.321       .  A
N114       Mn144   2.217   1_655  S
N115        C123   1.357       .  A
N116        N117   1.323       .  A
N116        N118   1.314       .  A
N116       Mn122   2.210       .  S
N117        C124   1.357       .  A
N118        N119   1.319       .  A
N118       Mn144   2.203       .  S
N119        C124   1.355       .  A
N120        N121   1.325       .  A
N120       Mn122   2.218   1_655  S
N121        C123   1.358       .  A
Mn122      Cl146   2.553       .  S
C123        C505   1.504       .  S
C124        C526   1.496       .  S
N125        N126   1.323       .  A
N125        N131   1.316       .  A
N125       Mn133   2.218   1_655  S
N126        C134   1.356       .  A
N127        N129   1.316       .  A
N127        N128   1.320       .  A
N127       Mn145   2.203       .  S
N128        C135   1.353       .  A
N129        N130   1.324       .  A
N129       Mn133   2.223       .  S
N130        C135   1.358       .  A
N131        N132   1.322       .  A
N131       Mn145   2.215   1_655  S
N132        C134   1.357       .  A
Mn133      Cl146   2.550       .  S
C134        C514   1.501       .  S
C135        C538   1.490       .  S
N136        N137   1.321       .  A
N136        N142   1.315       .  A
N136       Mn144   2.213       .  S
N137        C147   1.355       .  A
N138        N139   1.324       .  A
N138        N140   1.315       .  A
N138       Mn145   2.211   1_655  S
N139        C148   1.356       .  A
N140        N141   1.319       .  A
N140       Mn144   2.203   1_655  S
N141        C148   1.353       .  A
N142        N143   1.323       .  A
N142       Mn145   2.210       .  S
N143        C147   1.356       .  A
Mn144      Cl146   2.541       .  S
Mn145      Cl146   2.555       .  S
C147        C577   1.492       .  S
C148        C553   1.484       .  S
C149        N150   1.368       .  A
C149        N154   1.353       .  A
C149        C478   1.478       .  S
N150        C151   1.369       .  A
C151        N152   1.358       .  A
C151        C661   1.479       .  S
N152        C153   1.354       .  A
C153        N154   1.350       .  A
C153        C490   1.466       .  S
C155        N156   1.359       .  A
C155        N160   1.367       .  A
C155        C646   1.481       .  S
N156        C157   1.357       .  A
C157        N158   1.352       .  A
C157        C469   1.475       .  S
N158        C159   1.353       .  A
C159        N160   1.366       .  A
C159        C457   1.476       .  S
C161        N162   1.356       .  A
C161        N166   1.363       .  A
C161        C694   1.470       .  S
N162        C163   1.351       .  A
C163        N164   1.351       .  A
C163        C445   1.469       .  S
N164        C165   1.355       .  A
C165        N166   1.364       .  A
C165        C430   1.466       .  S
C167        N168   1.365       .  A
C167        N172   1.354       .  A
C167        C406   1.470       .  S
N168        C169   1.366       .  A
C169        N170   1.356       .  A
C169        C670   1.473       .  S
N170        C171   1.353       .  A
C171        N172   1.350       .  A
C171        C421   1.465       .  S
N173        C178   1.351       .  A
N173        C177   1.352   1_554  A
N173        H205   1.043       .  S
N174        C181   1.346       .  A
N174        C182   1.347   1_545  A
N175        C180   1.351       .  A
N175        C179   1.351   1_554  A
N175        H206   1.041       .  S
N176        C183   1.349       .  A
N176        C184   1.349   1_545  A
C177        C185   1.386       .  A
C177        C193   1.410       .  A
C178        C194   1.413       .  A
C178        C186   1.388       .  A
C179        C187   1.387       .  A
C179        C196   1.411       .  A
C180        C195   1.411       .  A
C180        C188   1.388       .  A
C181        C193   1.405       .  A
C181        C189   1.386       .  A
C182        C196   1.405       .  A
C182        C190   1.386       .  A
C183        C191   1.386       .  A
C183        C194   1.410       .  A
C184        C192   1.385       .  A
C184        C195   1.408       .  A
C185        C186   1.374   1_556  A
C185        H197   1.082       .  S
C186        H198   1.082       .  S
C187        C188   1.373   1_556  A
C187        H199   1.082       .  S
C188        H200   1.082       .  S
C189        C190   1.374   1_545  A
C189        H201   1.082       .  S
C190        H202   1.082       .  S
C191        C192   1.375   1_545  A
C191        H203   1.082       .  S
C192        H204   1.082       .  S
C193        C442   1.484       .  S
C194        C466   1.489       .  S
C195        C493   1.482       .  S
C196        C418   1.481       .  S
C207        N208   1.355       .  A
C207        N212   1.367       .  A
C207        C541   1.475       .  S
N208        C209   1.351       .  A
C209        N210   1.352       .  A
C209        C394   1.470       .  S
N210        C211   1.356       .  A
C211        N212   1.368       .  A
C211        C382   1.475       .  S
C213        N214   1.372       .  A
C213        N218   1.356       .  A
C213        C361   1.480       .  S
N214        C215   1.371       .  A
C215        N216   1.355       .  A
C215        C502   1.485       .  S
N216        C217   1.350       .  A
C217        N218   1.351       .  A
C217        C370   1.466       .  S
C219        N220   1.357       .  A
C219        N224   1.366       .  A
C219        C529   1.474       .  S
N220        C221   1.353       .  A
C221        N222   1.353       .  A
C221        C349   1.472       .  S
N222        C223   1.355       .  A
C223        N224   1.366       .  A
C223        C334   1.474       .  S
C225        N226   1.371       .  A
C225        N230   1.355       .  A
C225        C310   1.477       .  S
N226        C227   1.370       .  A
C227        N228   1.355       .  A
C227        C517   1.478       .  S
N228        C229   1.349       .  A
C229        N230   1.348       .  A
C229        C322   1.461       .  S
N231        C236   1.352       .  A
N231        C235   1.353   1_565  A
N231        H263   1.042       .  S
N232        C239   1.347       .  A
N232        C240   1.348   1_655  A
N233        C238   1.351   1_545  A
N233        C237   1.352       .  A
N233        H264   1.041   1_545  S
N234        C241   1.349       .  A
N234        C242   1.349   1_655  A
C235        C243   1.388       .  A
C235        C251   1.413       .  A
C236        C252   1.411       .  A
C236        C244   1.387       .  A
C237        C245   1.388       .  A
C237        C254   1.413       .  A
C238        C253   1.410       .  A
C238        C246   1.386       .  A
C239        C251   1.408       .  A
C239        C247   1.386       .  A
C240        C254   1.408       .  A
C240        C248   1.386       .  A
C241        C249   1.385       .  A
C241        C252   1.408       .  A
C242        C250   1.387       .  A
C242        C253   1.410       .  A
C243        C244   1.372   1_545  A
C243        H255   1.082       .  S
C244        H256   1.082       .  S
C245        C246   1.373   1_545  A
C245        H257   1.082       .  S
C246        H258   1.082       .  S
C247        C248   1.374   1_655  A
C247        H259   1.083       .  S
C248        H260   1.082       .  S
C249        C250   1.373   1_655  A
C249        H261   1.082       .  S
C250        H262   1.082       .  S
C251        C373   1.484       .  S
C252        C325   1.481       .  S
C253        C397   1.485       .  S
C254        C346   1.486       .  S
N265        N266   1.319       .  A
N265        N271   1.315       .  A
N265       Mn294   2.202   1_565  S
N266        C273   1.354       .  A
N267        N269   1.316       .  A
N267        N268   1.324       .  A
N267       Mn283   2.223       .  S
N268        C274   1.357       .  A
N269        N270   1.322       .  A
N269       Mn294   2.207       .  S
N270        C274   1.354       .  A
N271        N272   1.325       .  A
N271       Mn283   2.221   1_565  S
N272        C273   1.358       .  A
C273        C313   1.499       .  S
C274        C358   1.491       .  S
N275        N281   1.317       .  A
N275        N276   1.322       .  A
N275       Mn305   2.216       .  S
N276        C284   1.355       .  A
N277        N278   1.325       .  A
N277        N279   1.315       .  A
N277       Mn283   2.219   1_565  S
N278        C285   1.357       .  A
N279        N280   1.320       .  A
N279       Mn305   2.209   1_565  S
N280        C285   1.355       .  A
N281        N282   1.323       .  A
N281       Mn283   2.218       .  S
N282        C284   1.356       .  A
Mn283      Cl307   2.559       .  S
C284        C454   1.490       .  S
C285        C481   1.498       .  S
N286        N287   1.320       .  A
N286        N292   1.315       .  A
N286       Mn294   2.201       .  S
N287        C295   1.354       .  A
N288        N290   1.314       .  A
N288        N289   1.320       .  A
N288       Mn306   2.208   1_565  S
N289        C296   1.357       .  A
N290        N291   1.322       .  A
N290       Mn294   2.202   1_565  S
N291        C296   1.354       .  A
N292        N293   1.319       .  A
N292       Mn306   2.203       .  S
N293        C295   1.354       .  A
Mn294      Cl307   2.546       .  S
C295        C433   1.485       .  S
C296        C409   1.493       .  S
N297        N298   1.324       .  A
N297        N303   1.315       .  A
N297       Mn305   2.220   1_565  S
N298        C308   1.358       .  A
N299        N300   1.320       .  A
N299        N301   1.315       .  A
N299       Mn306   2.203       .  S
N300        C309   1.354       .  A
N301        N302   1.323       .  A
N301       Mn305   2.214       .  S
N302        C309   1.356       .  A
N303        N304   1.320       .  A
N303       Mn306   2.202   1_565  S
N304        C308   1.353       .  A
Mn305      Cl307   2.548       .  S
Mn306      Cl307   2.548       .  S
C308        C385   1.492       .  S
C309        C337   1.489       .  S
C310        C311   1.403       .  A
C310        C315   1.410       .  A
C311        C312   1.408       .  A
C311        H320   1.084       .  S
C312        C313   1.420       .  A
C312        S316   1.799       .  S
C313        C314   1.408       .  A
C314        C315   1.399       .  A
C314        H321   1.083       .  S
C315        S317   1.805       .  S
S316        H319   1.408       .  S
S317        H318   1.407       .  S
C322        C323   1.401       .  A
C322        C327   1.409       .  A
C323        C324   1.398       .  A
C323        H332   1.084       .  S
C324        C325   1.412       .  A
C324        S328   1.803       .  S
C325        C326   1.403       .  A
C326        C327   1.395       .  A
C326        H333   1.084       .  S
C327        S329   1.804       .  S
S328        H331   1.405       .  S
S329        H330   1.407       .  S
C334        C335   1.401       .  A
C334        C339   1.411       .  A
C335        C336   1.404       .  A
C335        H344   1.084       .  S
C336        C337   1.418       .  A
C336        S340   1.801       .  S
C337        C338   1.405       .  A
C338        C339   1.401       .  A
C338        H345   1.083       .  S
C339        S341   1.803       .  S
S340        H343   1.407       .  S
S341        H342   1.406       .  S
C346        C347   1.404       .  A
C346        C351   1.412       .  A
C347        C348   1.397       .  A
C347        H356   1.084       .  S
C348        C349   1.414       .  A
C348        S352   1.804       .  S
C349        C350   1.403       .  A
C350        C351   1.397       .  A
C350        H357   1.084       .  S
C351        S353   1.803       .  S
S352        H355   1.407       .  S
S353        H354   1.406       .  S
C358        C359   1.404       .  A
C358        C363   1.417       .  A
C359        C360   1.403       .  A
C359        H368   1.084       .  S
C360        C361   1.413       .  A
C360        S364   1.804       .  S
C361        C362   1.404       .  A
C362        C363   1.407       .  A
C362        H369   1.084       .  S
C363        S365   1.804       .  S
S364        H367   1.406       .  S
S365        H366   1.407       .  S
C370        C371   1.399       .  A
C370        C375   1.412       .  A
C371        C372   1.396       .  A
C371        H380   1.083       .  S
C372        C373   1.413       .  A
C372        S376   1.810       .  S
C373        C374   1.403       .  A
C374        C375   1.400       .  A
C374        H381   1.084       .  S
C375        S377   1.803       .  S
S376        H379   1.406       .  S
S377        H378   1.407       .  S
C382        C383   1.401       .  A
C382        C387   1.409       .  A
C383        C384   1.404       .  A
C383        H392   1.084       .  S
C384        C385   1.420       .  A
C384        S388   1.801       .  S
C385        C386   1.406       .  A
C386        C387   1.401       .  A
C386        H393   1.083       .  S
C387        S389   1.799       .  S
S388        H391   1.408       .  S
S389        H390   1.405       .  S
C394        C395   1.402       .  A
C394        C399   1.412       .  A
C395        C396   1.395       .  A
C395        H404   1.084       .  S
C396        C397   1.413       .  A
C396        S400   1.805       .  S
C397        C398   1.403       .  A
C398        C399   1.398       .  A
C398        H405   1.084       .  S
C399        S401   1.803       .  S
S400        H403   1.406       .  S
S401        H402   1.407       .  S
C406        C407   1.401       .  A
C406        C411   1.409       .  A
C407        C408   1.406       .  A
C407        H416   1.084       .  S
C408        C409   1.422       .  A
C408        S412   1.800       .  S
C409        C410   1.405       .  A
C410        C411   1.395       .  A
C410        H417   1.082       .  S
C411        S413   1.804       .  S
S412        H415   1.407       .  S
S413        H414   1.405       .  S
C418        C419   1.402       .  A
C418        C423   1.416       .  A
C419        C420   1.397       .  A
C419        H428   1.084       .  S
C420        C421   1.411       .  A
C420        S424   1.803       .  S
C421        C422   1.400       .  A
C422        C423   1.394       .  A
C422        H429   1.084       .  S
C423        S425   1.806       .  S
S424        H427   1.407       .  S
S425        H426   1.406       .  S
C430        C431   1.400       .  A
C430        C435   1.409       .  A
C431        C432   1.401       .  A
C431        H440   1.084       .  S
C432        C433   1.419       .  A
C432        S436   1.800       .  S
C433        C434   1.405       .  A
C434        C435   1.397       .  A
C434        H441   1.082       .  S
C435        S437   1.805       .  S
S436        H439   1.408       .  S
S437        H438   1.406       .  S
C442        C443   1.404       .  A
C442        C447   1.408       .  A
C443        C444   1.394       .  A
C443        H452   1.084       .  S
C444        C445   1.412       .  A
C444        S448   1.804       .  S
C445        C446   1.405       .  A
C446        C447   1.401       .  A
C446        H453   1.083       .  S
C447        S449   1.805       .  S
S448        H451   1.407       .  S
S449        H450   1.407       .  S
C454        C455   1.405       .  A
C454        C459   1.417       .  A
C455        C456   1.402       .  A
C455        H464   1.083       .  S
C456        C457   1.412       .  A
C456        S460   1.801       .  S
C457        C458   1.404       .  A
C458        C459   1.405       .  A
C458        H465   1.084       .  S
C459        S461   1.803       .  S
S460        H463   1.405       .  S
S461        H462   1.408       .  S
C466        C467   1.402       .  A
C466        C471   1.414       .  A
C467        C468   1.393       .  A
C467        H476   1.084       .  S
C468        C469   1.415       .  A
C468        S472   1.804       .  S
C469        C470   1.404       .  A
C470        C471   1.401       .  A
C470        H477   1.084       .  S
C471        S473   1.804       .  S
S472        H475   1.407       .  S
S473        H474   1.406       .  S
C478        C479   1.402       .  A
C478        C483   1.411       .  A
C479        C480   1.407       .  A
C479        H488   1.084       .  S
C480        C481   1.421       .  A
C480        S484   1.798       .  S
C481        C482   1.408       .  A
C482        C483   1.400       .  A
C482        H489   1.084       .  S
C483        S485   1.804       .  S
S484        H487   1.407       .  S
S485        H486   1.407       .  S
C490        C491   1.400       .  A
C490        C495   1.411       .  A
C491        C492   1.392       .  A
C491        H500   1.085       .  S
C492        C493   1.414       .  A
C492        S496   1.806       .  S
C493        C494   1.404       .  A
C494        C495   1.400       .  A
C494        H501   1.084       .  S
C495        S497   1.803       .  S
S496        H499   1.406       .  S
S497        H498   1.406       .  S
C502        C503   1.404       .  A
C502        C507   1.412       .  A
C503        C504   1.412       .  A
C503        H512   1.084       .  S
C504        C505   1.424       .  A
C504        S508   1.800       .  S
C505        C506   1.406       .  A
C506        C507   1.398       .  A
C506        H513   1.083       .  S
C507        S509   1.805       .  S
S508        H511   1.407       .  S
S509        H510   1.407       .  S
C514        C515   1.408       .  A
C514        C519   1.422       .  A
C515        C516   1.401       .  A
C515        H524   1.083       .  S
C516        C517   1.411       .  A
C516        S520   1.805       .  S
C517        C518   1.401       .  A
C518        C519   1.408       .  A
C518        H525   1.084       .  S
C519        S521   1.797       .  S
S520        H523   1.407       .  S
S521        H522   1.407       .  S
C526        C527   1.408       .  A
C526        C531   1.421       .  A
C527        C528   1.397       .  A
C527        H536   1.082       .  S
C528        C529   1.407       .  A
C528        S532   1.804       .  S
C529        C530   1.402       .  A
C530        C531   1.410       .  A
C530        H537   1.083       .  S
C531        S533   1.808       .  S
S532        H535   1.407       .  S
S533        H534   1.407       .  S
C538        C539   1.403       .  A
C538        C543   1.418       .  A
C539        C540   1.401       .  A
C539        H548   1.084       .  S
C540        C541   1.412       .  A
C540        S544   1.802       .  S
C541        C542   1.402       .  A
C542        C543   1.408       .  A
C542        H549   1.083       .  S
C543        S545   1.808       .  S
S544        H547   1.403       .  S
S545        H546   1.407       .  S
C550        C551   1.401       .  A
C550        C555   1.412       .  A
C551        C552   1.401       .  A
C551        H560   1.084       .  S
C552        C553   1.416       .  A
C552        S556   1.804       .  S
C553        C554   1.405       .  A
C554        C555   1.403       .  A
C554        H561   1.084       .  S
C555        S557   1.803       .  S
S556        H559   1.408       .  S
S557        H558   1.406       .  S
C562        C563   1.404       .  A
C562        C567   1.411       .  A
C563        C564   1.402       .  A
C563        H572   1.084       .  S
C564        C565   1.414       .  A
C564        S568   1.804       .  S
C565        C566   1.401       .  A
C566        C567   1.392       .  A
C566        H573   1.084       .  S
C567        S569   1.804       .  S
S568        H571   1.406       .  S
S569        H570   1.407       .  S
C574        C575   1.401       .  A
C574        C579   1.411       .  A
C575        C576   1.406       .  A
C575        H584   1.083       .  S
C576        C577   1.416       .  A
C576        S580   1.807       .  S
C577        C578   1.407       .  A
C578        C579   1.403       .  A
C578        H585   1.083       .  S
C579        S581   1.804       .  S
S580        H583   1.407       .  S
S581        H582   1.405       .  S
C586        C587   1.403       .  A
C586        C591   1.413       .  A
C587        C588   1.393       .  A
C587        H596   1.084       .  S
C588        C589   1.411       .  A
C588        S592   1.805       .  S
C589        C590   1.402       .  A
C590        C591   1.398       .  A
C590        H597   1.084       .  S
C591        S593   1.804       .  S
S592        H595   1.407       .  S
S593        H594   1.406       .  S
C598        C599   1.401       .  A
C598        C603   1.408       .  A
C599        C600   1.403       .  A
C599        H608   1.084       .  S
C600        C601   1.419       .  A
C600        S604   1.798       .  S
C601        C602   1.409       .  A
C602        C603   1.398       .  A
C602        H609   1.083       .  S
C603        S605   1.804       .  S
S604        H607   1.407       .  S
S605        H606   1.406       .  S
C610        C611   1.405       .  A
C610        C615   1.413       .  A
C611        C612   1.402       .  A
C611        H620   1.084       .  S
C612        C613   1.412       .  A
C612        S616   1.802       .  S
C613        C614   1.402       .  A
C614        C615   1.395       .  A
C614        H621   1.084       .  S
C615        S617   1.803       .  S
S616        H619   1.406       .  S
S617        H618   1.407       .  S
C622        C623   1.407       .  A
C622        C627   1.422       .  A
C623        C624   1.398       .  A
C623        H632   1.084       .  S
C624        C625   1.409       .  A
C624        S628   1.804       .  S
C625        C626   1.399       .  A
C626        C627   1.403       .  A
C626        H633   1.084       .  S
C627        S629   1.800       .  S
S628        H631   1.406       .  S
S629        H630   1.408       .  S
C634        C635   1.402       .  A
C634        C639   1.412       .  A
C635        C636   1.397       .  A
C635        H644   1.084       .  S
C636        C637   1.418       .  A
C636        S640   1.806       .  S
C637        C638   1.403       .  A
C638        C639   1.396       .  A
C638        H645   1.084       .  S
C639        S641   1.802       .  S
S640        H643   1.406       .  S
S641        H642   1.407       .  S
C646        C647   1.401       .  A
C646        C651   1.416       .  A
C647        C648   1.407       .  A
C647        H656   1.083       .  S
C648        C649   1.414       .  A
C648        S652   1.806       .  S
C649        C650   1.406       .  A
C650        C651   1.407       .  A
C650        H657   1.084       .  S
C651        S653   1.807       .  S
S652        H655   1.407       .  S
S653        H654   1.404       .  S
C658        C659   1.404       .  A
C658        C663   1.417       .  A
C659        C660   1.406       .  A
C659        H668   1.084       .  S
C660        C661   1.416       .  A
C660        S664   1.805       .  S
C661        C662   1.401       .  A
C662        C663   1.403       .  A
C662        H669   1.084       .  S
C663        S665   1.804       .  S
S664        H667   1.406       .  S
S665        H666   1.406       .  S
C670        C671   1.400       .  A
C670        C675   1.410       .  A
C671        C672   1.403       .  A
C671        H680   1.084       .  S
C672        C673   1.420       .  A
C672        S676   1.799       .  S
C673        C674   1.406       .  A
C674        C675   1.400       .  A
C674        H681   1.084       .  S
C675        S677   1.802       .  S
S676        H679   1.407       .  S
S677        H678   1.405       .  S
C682        C683   1.404       .  A
C682        C687   1.411       .  A
C683        C684   1.409       .  A
C683        H692   1.084       .  S
C684        C685   1.420       .  A
C684        S688   1.800       .  S
C685        C686   1.407       .  A
C686        C687   1.396       .  A
C686        H693   1.083       .  S
C687        S689   1.806       .  S
S688        H691   1.408       .  S
S689        H690   1.407       .  S
C694        C695   1.401       .  A
C694        C699   1.409       .  A
C695        C696   1.405       .  A
C695        H704   1.084       .  S
C696        C697   1.421       .  A
C696        S700   1.802       .  S
C697        C698   1.406       .  A
C698        C699   1.394       .  A
C698        H705   1.083       .  S
C699        S701   1.805       .  S
S700        H703   1.408       .  S
S701        H702   1.407       .  S
C706        C707   1.400       .  A
C706        C711   1.410       .  A
C707        C708   1.404       .  A
C707        H716   1.084       .  S
C708        C709   1.422       .  A
C708        S712   1.800       .  S
C709        C710   1.406       .  A
C710        C711   1.401       .  A
C710        H717   1.084       .  S
C711        S713   1.803       .  S
S712        H715   1.408       .  S
S713        H714   1.407       .  S
C718        C719   1.406       .  A
C718        C723   1.419       .  A
C719        C720   1.397       .  A
C719        H728   1.082       .  S
C720        C721   1.408       .  A
C720        S724   1.804       .  S
C721        C722   1.400       .  A
C722        C723   1.403       .  A
C722        H729   1.084       .  S
C723        S725   1.799       .  S
S724        H727   1.406       .  S
S725        H726   1.407       .  S
C730        C731   1.404       .  A
C730        C735   1.415       .  A
C731        C732   1.399       .  A
C731        H740   1.084       .  S
C732        C733   1.411       .  A
C732        S736   1.804       .  S
C733        C734   1.401       .  A
C734        C735   1.400       .  A
C734        H741   1.084       .  S
C735        S737   1.803       .  S
S736        H739   1.405       .  S
S737        H738   1.407       .  S
